@<TRIPOS>MOLECULE
*****
 35 39 0 0 0
SMALL
GASTEIGER

@<TRIPOS>ATOM
      1 N         142.8879  141.4550  161.0725 N.3     1  UNL1       -0.2674
      2 C         143.4075  141.4496  162.4796 C.3     1  UNL1        0.0940
      3 C         143.0788  140.3084  163.3959 C.3     1  UNL1        0.1107
      4 N         142.2306  139.1727  162.9051 N.am    1  UNL1       -0.2764
      5 C         141.9020  138.0316  163.8215 C.2     1  UNL1        0.2302
      6 O         141.0538  136.8959  163.3308 O.2     1  UNL1       -0.2745
      7 C         141.7111  139.1782  161.4980 C.3     1  UNL1        0.1107
      8 C         142.0397  140.3193  160.5816 C.3     1  UNL1        0.0940
      9 C         143.2166  142.5962  160.1561 C.3     1  UNL1        0.1067
     10 C         142.3663  143.8319  160.1623 C.3     1  UNL1        0.1531
     11 C         141.4589  144.1121  161.3235 C.ar    1  UNL1        0.0018
     12 C         141.9656  144.8923  162.5001 C.ar    1  UNL1       -0.0020
     13 C         141.0583  145.1725  163.6612 C.ar    1  UNL1        0.0060
     14 C         139.6442  144.6725  163.6457 C.ar    1  UNL1        0.0748
     15 C         139.1374  143.8922  162.4691 C.ar    1  UNL1        0.0233
     16 C         140.0447  143.6120  161.3080 C.ar    1  UNL1       -0.0238
     17 C         139.5380  142.8318  160.1313 C.3     1  UNL1        0.0306
     18 C         137.7061  143.5304  162.7345 C.3     1  UNL1        0.2352
     19 O         137.3283  144.0870  164.0752 O.3     1  UNL1       -0.4404
     20 C         138.5261  144.7928  164.6384 C.2     1  UNL1        0.3413
     21 O         138.5939  145.4956  165.9618 O.2     1  UNL1       -0.2449
     22 C         142.0511  144.3229  157.6306 C.3     1  UNL1        0.1745
     23 O         142.4234  144.7874  159.0075 O.3     1  UNL1       -0.3478
     24 C         142.4215  138.0260  165.2287 C.3     1  UNL1        0.1131
     25 C         141.8785  138.9994  166.2325 C.ar    1  UNL1        0.0062
     26 C         142.7380  139.4586  167.3728 C.ar    1  UNL1        0.0009
     27 C         142.1951  140.4320  168.3767 C.ar    1  UNL1        0.0386
     28 C         140.7927  140.9462  168.2402 C.ar    1  UNL1        0.1672
     29 N         139.9331  140.4871  167.0999 N.ar    1  UNL1       -0.2252
     30 C         140.4760  139.5137  166.0960 C.ar    1  UNL1        0.0968
     31 N         140.2496  141.9197  169.2440 N.ar    1  UNL1       -0.1708
     32 C         140.6171  143.3698  169.3542 C.ar    1  UNL1        0.2272
     33 N         139.8383  143.9601  170.4921 N.ar    1  UNL1       -0.1044
     34 N         138.9896  142.8748  171.0852 N.ar    1  UNL1       -0.0222
     35 N         139.2438  141.6138  170.3139 N.ar    1  UNL1       -0.0371
@<TRIPOS>BOND
     1    22    23    1
     2    23    10    1
     3    10     9    1
     4     9     1    1
     5     1     2    1
     6     2     3    1
     7     3     4    1
     8     4     5   am
     9     5     6    2
    10     5    24    1
    11    24    25    1
    12    25    26   ar
    13    26    27   ar
    14    27    28   ar
    15    28    31    1
    16    31    32   ar
    17    32    33   ar
    18    33    34   ar
    19    34    35   ar
    20    28    29   ar
    21    29    30   ar
    22     4     7    1
    23     7     8    1
    24    10    11    1
    25    11    12   ar
    26    12    13   ar
    27    13    14   ar
    28    14    15   ar
    29    15    16   ar
    30    16    17    1
    31    15    18    1
    32    18    19    1
    33    19    20    1
    34    20    21    2
    35     8     1    1
    36    16    11   ar
    37    30    25   ar
    38    20    14    1
    39    35    31   ar
@<TRIPOS>MOLECULE
*****
 35 39 0 0 0
SMALL
GASTEIGER

@<TRIPOS>ATOM
      1 N         140.8586  138.5601  161.2170 N.3     1  UNL1       -0.2674
      2 C         140.6087  137.9613  162.5694 C.3     1  UNL1        0.0940
      3 C         141.6333  138.1071  163.6551 C.3     1  UNL1        0.1107
      4 N         142.9079  138.8516  163.3884 N.am    1  UNL1       -0.2764
      5 C         143.9325  138.9974  164.4742 C.2     1  UNL1        0.2302
      6 O         145.2071  139.7419  164.2076 O.2     1  UNL1       -0.2745
      7 C         143.1578  139.4505  162.0361 C.3     1  UNL1        0.1107
      8 C         142.1332  139.3047  160.9503 C.3     1  UNL1        0.0940
      9 C         139.8340  138.4144  160.1312 C.3     1  UNL1        0.1067
     10 C         138.9500  139.5723  159.7739 C.3     1  UNL1        0.1531
     11 C         138.7006  140.6622  160.7740 C.ar    1  UNL1        0.0018
     12 C         137.7666  140.4258  161.9236 C.ar    1  UNL1       -0.0020
     13 C         137.5172  141.5156  162.9236 C.ar    1  UNL1        0.0060
     14 C         138.2019  142.8418  162.7742 C.ar    1  UNL1        0.0748
     15 C         139.1361  143.0782  161.6246 C.ar    1  UNL1        0.0233
     16 C         139.3854  141.9884  160.6245 C.ar    1  UNL1       -0.0238
     17 C         140.3196  142.2247  159.4748 C.3     1  UNL1        0.0306
     18 C         139.6638  144.4778  161.7363 C.3     1  UNL1        0.2352
     19 O         139.0558  145.1064  162.9550 O.3     1  UNL1       -0.4404
     20 C         138.1524  144.0953  163.5964 C.2     1  UNL1        0.3413
     21 O         137.3417  144.3016  164.8415 O.2     1  UNL1       -0.2449
     22 C         139.1723  139.6119  157.1856 C.3     1  UNL1        0.1745
     23 O         138.3154  139.6405  158.4164 O.3     1  UNL1       -0.3478
     24 C         143.6826  138.3986  165.8267 C.3     1  UNL1        0.1131
     25 C         142.9881  139.2020  166.8859 C.ar    1  UNL1        0.0062
     26 C         142.9848  138.7245  168.3079 C.ar    1  UNL1        0.0009
     27 C         142.2903  139.5279  169.3672 C.ar    1  UNL1        0.0386
     28 C         141.5991  140.8088  169.0046 C.ar    1  UNL1        0.1672
     29 N         141.6024  141.2863  167.5826 N.ar    1  UNL1       -0.2252
     30 C         142.2969  140.4829  166.5233 C.ar    1  UNL1        0.0968
     31 N         140.9045  141.6124  170.0639 N.ar    1  UNL1       -0.1708
     32 C         139.9704  142.7620  169.8279 C.ar    1  UNL1        0.2272
     33 N         139.5108  143.2673  171.1633 N.ar    1  UNL1       -0.1044
     34 N         140.1609  142.4300  172.2245 N.ar    1  UNL1       -0.0222
     35 N         141.0223  141.4072  171.5451 N.ar    1  UNL1       -0.0371
@<TRIPOS>BOND
     1    22    23    1
     2    23    10    1
     3    10     9    1
     4     9     1    1
     5     1     2    1
     6     2     3    1
     7     3     4    1
     8     4     5   am
     9     5     6    2
    10     5    24    1
    11    24    25    1
    12    25    26   ar
    13    26    27   ar
    14    27    28   ar
    15    28    31    1
    16    31    32   ar
    17    32    33   ar
    18    33    34   ar
    19    34    35   ar
    20    28    29   ar
    21    29    30   ar
    22     4     7    1
    23     7     8    1
    24    10    11    1
    25    11    12   ar
    26    12    13   ar
    27    13    14   ar
    28    14    15   ar
    29    15    16   ar
    30    16    17    1
    31    15    18    1
    32    18    19    1
    33    19    20    1
    34    20    21    2
    35     8     1    1
    36    16    11   ar
    37    30    25   ar
    38    20    14    1
    39    35    31   ar
@<TRIPOS>MOLECULE
*****
 35 39 0 0 0
SMALL
GASTEIGER

@<TRIPOS>ATOM
      1 N         141.5366  142.4492  166.7575 N.3     1  UNL1       -0.2674
      2 C         140.3995  143.0989  166.0260 C.3     1  UNL1        0.0940
      3 C         140.6512  143.8128  164.7311 C.3     1  UNL1        0.1107
      4 N         142.0399  143.8770  164.1676 N.am    1  UNL1       -0.2764
      5 C         142.2914  144.5909  162.8726 C.2     1  UNL1        0.2302
      6 O         143.6801  144.6552  162.3091 O.2     1  UNL1       -0.2745
      7 C         143.1769  143.2274  164.8991 C.3     1  UNL1        0.1107
      8 C         142.9253  142.5135  166.1940 C.3     1  UNL1        0.0940
      9 C         141.2850  141.7353  168.0525 C.3     1  UNL1        0.1067
     10 C         140.7789  140.3233  168.0444 C.3     1  UNL1        0.1531
     11 C         140.3139  139.7005  166.7614 C.ar    1  UNL1        0.0018
     12 C         138.8767  139.8175  166.3486 C.ar    1  UNL1       -0.0020
     13 C         138.4118  139.1948  165.0656 C.ar    1  UNL1        0.0060
     14 C         139.3842  138.4550  164.1955 C.ar    1  UNL1        0.0748
     15 C         140.8215  138.3379  164.6083 C.ar    1  UNL1        0.0233
     16 C         141.2864  138.9607  165.8913 C.ar    1  UNL1       -0.0238
     17 C         142.7238  138.8437  166.3042 C.3     1  UNL1        0.0306
     18 C         141.5443  137.5535  163.5537 C.3     1  UNL1        0.2352
     19 O         140.5537  137.1858  162.4891 O.3     1  UNL1       -0.4404
     20 C         139.2187  137.7429  162.8857 C.2     1  UNL1        0.3413
     21 O         137.9423  137.6111  162.1089 O.2     1  UNL1       -0.2449
     22 C         140.5284  140.2350  170.6289 C.3     1  UNL1        0.1745
     23 O         140.7377  139.5341  169.3194 O.3     1  UNL1       -0.3478
     24 C         141.1544  145.2406  162.1410 C.3     1  UNL1        0.1131
     25 C         140.3659  144.4577  161.1334 C.ar    1  UNL1        0.0062
     26 C         140.8117  144.4145  159.7018 C.ar    1  UNL1        0.0009
     27 C         140.0232  143.6316  158.6942 C.ar    1  UNL1        0.0386
     28 C         138.7890  142.8920  159.1181 C.ar    1  UNL1        0.1672
     29 N         138.3433  142.9352  160.5497 N.ar    1  UNL1       -0.2252
     30 C         139.1317  143.7181  161.5574 C.ar    1  UNL1        0.0968
     31 N         138.0005  142.1090  158.1105 N.ar    1  UNL1       -0.1708
     32 C         137.3919  142.6525  156.8518 C.ar    1  UNL1        0.2272
     33 N         136.6974  141.5244  156.1482 N.ar    1  UNL1       -0.1044
     34 N         136.8768  140.2838  156.9720 N.ar    1  UNL1       -0.0222
     35 N         137.6821  140.6451  158.1847 N.ar    1  UNL1       -0.0371
@<TRIPOS>BOND
     1    22    23    1
     2    23    10    1
     3    10     9    1
     4     9     1    1
     5     1     2    1
     6     2     3    1
     7     3     4    1
     8     4     5   am
     9     5     6    2
    10     5    24    1
    11    24    25    1
    12    25    26   ar
    13    26    27   ar
    14    27    28   ar
    15    28    31    1
    16    31    32   ar
    17    32    33   ar
    18    33    34   ar
    19    34    35   ar
    20    28    29   ar
    21    29    30   ar
    22     4     7    1
    23     7     8    1
    24    10    11    1
    25    11    12   ar
    26    12    13   ar
    27    13    14   ar
    28    14    15   ar
    29    15    16   ar
    30    16    17    1
    31    15    18    1
    32    18    19    1
    33    19    20    1
    34    20    21    2
    35     8     1    1
    36    16    11   ar
    37    30    25   ar
    38    20    14    1
    39    35    31   ar
@<TRIPOS>MOLECULE
*****
 35 39 0 0 0
SMALL
GASTEIGER

@<TRIPOS>ATOM
      1 N         140.1908  142.1523  160.5193 N.3     1  UNL1       -0.2674
      2 C         139.2465  142.1812  161.6845 C.3     1  UNL1        0.0940
      3 C         139.0230  140.9420  162.4995 C.3     1  UNL1        0.1107
      4 N         139.7438  139.6740  162.1495 N.am    1  UNL1       -0.2764
      5 C         139.5202  138.4348  162.9646 C.2     1  UNL1        0.2302
      6 O         140.2409  137.1667  162.6146 O.2     1  UNL1       -0.2745
      7 C         140.6880  139.6451  160.9843 C.3     1  UNL1        0.1107
      8 C         140.9116  140.8842  160.1692 C.3     1  UNL1        0.0940
      9 C         140.4143  143.3915  159.7042 C.3     1  UNL1        0.1067
     10 C         141.4962  144.3569  160.0884 C.3     1  UNL1        0.1531
     11 C         142.2832  144.1396  161.3468 C.ar    1  UNL1        0.0018
     12 C         141.8952  144.8547  162.6069 C.ar    1  UNL1       -0.0020
     13 C         142.6821  144.6374  163.8653 C.ar    1  UNL1        0.0060
     14 C         143.8570  143.7049  163.8635 C.ar    1  UNL1        0.0748
     15 C         144.2450  142.9897  162.6034 C.ar    1  UNL1        0.0233
     16 C         143.4581  143.2070  161.3450 C.ar    1  UNL1       -0.0238
     17 C         143.8461  142.4918  160.0848 C.3     1  UNL1        0.0306
     18 C         145.4422  142.1373  162.9039 C.3     1  UNL1        0.2352
     19 O         145.7940  142.3257  164.3498 O.3     1  UNL1       -0.4404
     20 C         144.8144  143.2945  164.9429 C.2     1  UNL1        0.3413
     21 O         144.7954  143.7695  166.3656 O.2     1  UNL1       -0.2449
     22 C         142.0204  145.3472  157.7443 C.3     1  UNL1        0.1745
     23 O         141.7911  145.5396  159.2142 O.3     1  UNL1       -0.3478
     24 C         138.5760  138.4636  164.1298 C.3     1  UNL1        0.1131
     25 C         139.0512  138.9451  165.4685 C.ar    1  UNL1        0.0062
     26 C         138.0950  139.0182  166.6219 C.ar    1  UNL1        0.0009
     27 C         138.5701  139.4997  167.9607 C.ar    1  UNL1        0.0386
     28 C         140.0014  139.9082  168.1461 C.ar    1  UNL1        0.1672
     29 N         140.9576  139.8352  166.9927 N.ar    1  UNL1       -0.2252
     30 C         140.4825  139.3536  165.6539 C.ar    1  UNL1        0.0968
     31 N         140.4767  140.3898  169.4849 N.ar    1  UNL1       -0.1708
     32 C         141.8241  140.9776  169.7830 C.ar    1  UNL1        0.2272
     33 N         141.8680  141.3192  171.2429 N.ar    1  UNL1       -0.1044
     34 N         140.5477  140.9425  171.8470 N.ar    1  UNL1       -0.0222
     35 N         139.6879  140.3682  170.7605 N.ar    1  UNL1       -0.0371
@<TRIPOS>BOND
     1    22    23    1
     2    23    10    1
     3    10     9    1
     4     9     1    1
     5     1     2    1
     6     2     3    1
     7     3     4    1
     8     4     5   am
     9     5     6    2
    10     5    24    1
    11    24    25    1
    12    25    26   ar
    13    26    27   ar
    14    27    28   ar
    15    28    31    1
    16    31    32   ar
    17    32    33   ar
    18    33    34   ar
    19    34    35   ar
    20    28    29   ar
    21    29    30   ar
    22     4     7    1
    23     7     8    1
    24    10    11    1
    25    11    12   ar
    26    12    13   ar
    27    13    14   ar
    28    14    15   ar
    29    15    16   ar
    30    16    17    1
    31    15    18    1
    32    18    19    1
    33    19    20    1
    34    20    21    2
    35     8     1    1
    36    16    11   ar
    37    30    25   ar
    38    20    14    1
    39    35    31   ar
@<TRIPOS>MOLECULE
*****
 35 39 0 0 0
SMALL
GASTEIGER

@<TRIPOS>ATOM
      1 N         142.1772  138.8915  160.2023 N.3     1  UNL1       -0.2674
      2 C         141.8582  138.1024  161.4374 C.3     1  UNL1        0.0940
      3 C         142.5925  138.3805  162.7155 C.3     1  UNL1        0.1107
      4 N         143.6457  139.4477  162.7584 N.am    1  UNL1       -0.2764
      5 C         144.3799  139.7257  164.0365 C.2     1  UNL1        0.2302
      6 O         145.4332  140.7929  164.0795 O.2     1  UNL1       -0.2745
      7 C         143.9647  140.2368  161.5233 C.3     1  UNL1        0.1107
      8 C         143.2305  139.9587  160.2452 C.3     1  UNL1        0.0940
      9 C         141.4430  138.6135  158.9242 C.3     1  UNL1        0.1067
     10 C         140.0742  139.1868  158.7056 C.3     1  UNL1        0.1531
     11 C         139.5758  140.2947  159.5856 C.ar    1  UNL1        0.0018
     12 C         139.9107  141.7199  159.2593 C.ar    1  UNL1       -0.0020
     13 C         139.4123  142.8278  160.1393 C.ar    1  UNL1        0.0060
     14 C         138.5790  142.5103  161.3454 C.ar    1  UNL1        0.0748
     15 C         138.2441  141.0851  161.6717 C.ar    1  UNL1        0.0233
     16 C         138.7425  139.9772  160.7918 C.ar    1  UNL1       -0.0238
     17 C         138.4077  138.5519  161.1180 C.3     1  UNL1        0.0306
     18 C         137.4095  141.0786  162.9180 C.3     1  UNL1        0.2352
     19 O         137.2285  142.4999  163.3620 O.3     1  UNL1       -0.4404
     20 C         137.9513  143.3848  162.3901 C.2     1  UNL1        0.3413
     21 O         138.0322  144.8813  162.4520 O.2     1  UNL1       -0.2449
     22 C         139.6955  137.5328  156.7381 C.3     1  UNL1        0.1745
     23 O         139.2038  138.6523  157.6071 O.3     1  UNL1       -0.3478
     24 C         144.0610  138.9366  165.2717 C.3     1  UNL1        0.1131
     25 C         143.3452  139.5912  166.4159 C.ar    1  UNL1        0.0062
     26 C         142.9291  141.0289  166.3162 C.ar    1  UNL1        0.0009
     27 C         142.2133  141.6835  167.4603 C.ar    1  UNL1        0.0386
     28 C         141.9136  140.9005  168.7041 C.ar    1  UNL1        0.1672
     29 N         142.3297  139.4629  168.8038 N.ar    1  UNL1       -0.2252
     30 C         143.0455  138.8082  167.6597 C.ar    1  UNL1        0.0968
     31 N         141.1977  141.5551  169.8483 N.ar    1  UNL1       -0.1708
     32 C         140.1254  142.5980  169.7367 C.ar    1  UNL1        0.2272
     33 N         139.6935  142.9691  171.1244 N.ar    1  UNL1       -0.1044
     34 N         140.4990  142.1556  172.0936 N.ar    1  UNL1       -0.0222
     35 N         141.4286  141.2817  171.3050 N.ar    1  UNL1       -0.0371
@<TRIPOS>BOND
     1    22    23    1
     2    23    10    1
     3    10     9    1
     4     9     1    1
     5     1     2    1
     6     2     3    1
     7     3     4    1
     8     4     5   am
     9     5     6    2
    10     5    24    1
    11    24    25    1
    12    25    26   ar
    13    26    27   ar
    14    27    28   ar
    15    28    31    1
    16    31    32   ar
    17    32    33   ar
    18    33    34   ar
    19    34    35   ar
    20    28    29   ar
    21    29    30   ar
    22     4     7    1
    23     7     8    1
    24    10    11    1
    25    11    12   ar
    26    12    13   ar
    27    13    14   ar
    28    14    15   ar
    29    15    16   ar
    30    16    17    1
    31    15    18    1
    32    18    19    1
    33    19    20    1
    34    20    21    2
    35     8     1    1
    36    16    11   ar
    37    30    25   ar
    38    20    14    1
    39    35    31   ar
@<TRIPOS>MOLECULE
*****
 35 39 0 0 0
SMALL
GASTEIGER

@<TRIPOS>ATOM
      1 N         142.3305  142.1341  159.7569 N.3     1  UNL1       -0.2674
      2 C         141.9331  140.9102  160.5276 C.3     1  UNL1        0.0940
      3 C         142.7800  140.4362  161.6713 C.3     1  UNL1        0.1107
      4 N         144.0243  141.1862  162.0443 N.am    1  UNL1       -0.2764
      5 C         144.8712  140.7121  163.1880 C.2     1  UNL1        0.2302
      6 O         146.1156  141.4621  163.5610 O.2     1  UNL1       -0.2745
      7 C         144.4218  142.4101  161.2736 C.3     1  UNL1        0.1107
      8 C         143.5749  142.8842  160.1299 C.3     1  UNL1        0.0940
      9 C         141.4836  142.6082  158.6132 C.3     1  UNL1        0.1067
     10 C         140.3007  143.4934  158.8724 C.3     1  UNL1        0.1531
     11 C         139.8413  143.7384  160.2792 C.ar    1  UNL1        0.0018
     12 C         140.3475  144.9300  161.0367 C.ar    1  UNL1       -0.0020
     13 C         139.8880  145.1750  162.4434 C.ar    1  UNL1        0.0060
     14 C         138.9223  144.2285  163.0926 C.ar    1  UNL1        0.0748
     15 C         138.4161  143.0369  162.3351 C.ar    1  UNL1        0.0233
     16 C         138.8755  142.7918  160.9284 C.ar    1  UNL1       -0.0238
     17 C         138.3693  141.6002  160.1708 C.3     1  UNL1        0.0306
     18 C         137.4771  142.2834  163.2299 C.3     1  UNL1        0.2352
     19 O         137.4031  143.0094  164.5404 O.3     1  UNL1       -0.4404
     20 C         138.2962  144.2115  164.4556 C.2     1  UNL1        0.3413
     21 O         138.5234  145.2196  165.5428 O.2     1  UNL1       -0.2449
     22 C         138.6763  143.3100  156.8531 C.3     1  UNL1        0.1745
     23 O         139.5773  144.1335  157.7249 O.3     1  UNL1       -0.3478
     24 C         144.4738  139.4882  163.9587 C.3     1  UNL1        0.1131
     25 C         143.5917  139.6152  165.1652 C.ar    1  UNL1        0.0062
     26 C         143.7522  138.6652  166.3149 C.ar    1  UNL1        0.0009
     27 C         142.8701  138.7921  167.5214 C.ar    1  UNL1        0.0386
     28 C         141.8275  139.8690  167.5783 C.ar    1  UNL1        0.1672
     29 N         141.6670  140.8190  166.4286 N.ar    1  UNL1       -0.2252
     30 C         142.5491  140.6921  165.2221 C.ar    1  UNL1        0.0968
     31 N         140.9453  139.9960  168.7849 N.ar    1  UNL1       -0.1708
     32 C         141.4046  140.2480  170.1904 C.ar    1  UNL1        0.2272
     33 N         140.1921  140.3010  171.0718 N.ar    1  UNL1       -0.1044
     34 N         138.9834  140.0818  170.2109 N.ar    1  UNL1       -0.0222
     35 N         139.4489  139.8933  168.7976 N.ar    1  UNL1       -0.0371
@<TRIPOS>BOND
     1    22    23    1
     2    23    10    1
     3    10     9    1
     4     9     1    1
     5     1     2    1
     6     2     3    1
     7     3     4    1
     8     4     5   am
     9     5     6    2
    10     5    24    1
    11    24    25    1
    12    25    26   ar
    13    26    27   ar
    14    27    28   ar
    15    28    31    1
    16    31    32   ar
    17    32    33   ar
    18    33    34   ar
    19    34    35   ar
    20    28    29   ar
    21    29    30   ar
    22     4     7    1
    23     7     8    1
    24    10    11    1
    25    11    12   ar
    26    12    13   ar
    27    13    14   ar
    28    14    15   ar
    29    15    16   ar
    30    16    17    1
    31    15    18    1
    32    18    19    1
    33    19    20    1
    34    20    21    2
    35     8     1    1
    36    16    11   ar
    37    30    25   ar
    38    20    14    1
    39    35    31   ar
@<TRIPOS>MOLECULE
*****
 35 39 0 0 0
SMALL
GASTEIGER

@<TRIPOS>ATOM
      1 N         142.9608  139.7347  160.1256 N.3     1  UNL1       -0.2674
      2 C         143.4900  139.4505  161.5001 C.3     1  UNL1        0.0940
      3 C         142.5849  138.8733  162.5476 C.3     1  UNL1        0.1107
      4 N         141.1506  138.5802  162.2208 N.am    1  UNL1       -0.2764
      5 C         140.2455  138.0030  163.2684 C.2     1  UNL1        0.2302
      6 O         138.8112  137.7099  162.9416 O.2     1  UNL1       -0.2745
      7 C         140.6214  138.8644  160.8463 C.3     1  UNL1        0.1107
      8 C         141.5265  139.4417  159.7987 C.3     1  UNL1        0.0940
      9 C         143.8659  140.3120  159.0780 C.3     1  UNL1        0.1067
     10 C         144.1170  141.7902  159.0356 C.3     1  UNL1        0.1531
     11 C         143.1456  142.7347  159.6794 C.ar    1  UNL1        0.0018
     12 C         141.9212  143.1751  158.9333 C.ar    1  UNL1       -0.0020
     13 C         140.9498  144.1196  159.5770 C.ar    1  UNL1        0.0060
     14 C         141.2030  144.6237  160.9669 C.ar    1  UNL1        0.0748
     15 C         142.4275  144.1834  161.7130 C.ar    1  UNL1        0.0233
     16 C         143.3988  143.2389  161.0693 C.ar    1  UNL1       -0.0238
     17 C         144.6234  142.7985  161.8154 C.3     1  UNL1        0.0306
     18 C         142.4116  144.8427  163.0603 C.3     1  UNL1        0.2352
     19 O         141.1772  145.6906  163.1467 O.3     1  UNL1       -0.4404
     20 C         140.4303  145.5552  161.8530 C.2     1  UNL1        0.3413
     21 O         139.1376  146.2325  161.5063 O.2     1  UNL1       -0.2449
     22 C         145.5758  142.0255  156.8986 C.3     1  UNL1        0.1745
     23 O         145.3395  142.3239  158.3495 O.3     1  UNL1       -0.3478
     24 C         140.7746  137.7187  164.6429 C.3     1  UNL1        0.1131
     25 C         140.6074  138.7328  165.7354 C.ar    1  UNL1        0.0062
     26 C         139.2447  139.0137  166.2958 C.ar    1  UNL1        0.0009
     27 C         139.0774  140.0278  167.3883 C.ar    1  UNL1        0.0386
     28 C         140.2729  140.7610  167.9205 C.ar    1  UNL1        0.1672
     29 N         141.6356  140.4801  167.3602 N.ar    1  UNL1       -0.2252
     30 C         141.8029  139.4660  166.2676 C.ar    1  UNL1        0.0968
     31 N         140.1057  141.7752  169.0131 N.ar    1  UNL1       -0.1708
     32 C         140.4800  143.2256  168.9346 C.ar    1  UNL1        0.2272
     33 N         140.1405  143.8636  170.2489 N.ar    1  UNL1       -0.1044
     34 N         139.5564  142.8075  171.1397 N.ar    1  UNL1       -0.0222
     35 N         139.5349  141.5168  170.3759 N.ar    1  UNL1       -0.0371
@<TRIPOS>BOND
     1    22    23    1
     2    23    10    1
     3    10     9    1
     4     9     1    1
     5     1     2    1
     6     2     3    1
     7     3     4    1
     8     4     5   am
     9     5     6    2
    10     5    24    1
    11    24    25    1
    12    25    26   ar
    13    26    27   ar
    14    27    28   ar
    15    28    31    1
    16    31    32   ar
    17    32    33   ar
    18    33    34   ar
    19    34    35   ar
    20    28    29   ar
    21    29    30   ar
    22     4     7    1
    23     7     8    1
    24    10    11    1
    25    11    12   ar
    26    12    13   ar
    27    13    14   ar
    28    14    15   ar
    29    15    16   ar
    30    16    17    1
    31    15    18    1
    32    18    19    1
    33    19    20    1
    34    20    21    2
    35     8     1    1
    36    16    11   ar
    37    30    25   ar
    38    20    14    1
    39    35    31   ar
@<TRIPOS>MOLECULE
*****
 35 39 0 0 0
SMALL
GASTEIGER

@<TRIPOS>ATOM
      1 N         140.5665  138.8962  160.0388 N.3     1  UNL1       -0.2674
      2 C         140.6794  138.1262  161.3211 C.3     1  UNL1        0.0940
      3 C         139.8336  138.5052  162.5005 C.3     1  UNL1        0.1107
      4 N         138.8749  139.6542  162.3976 N.am    1  UNL1       -0.2764
      5 C         138.0292  140.0332  163.5770 C.2     1  UNL1        0.2302
      6 O         137.0705  141.1822  163.4742 O.2     1  UNL1       -0.2745
      7 C         138.7620  140.4243  161.1153 C.3     1  UNL1        0.1107
      8 C         139.6077  140.0453  159.9359 C.3     1  UNL1        0.0940
      9 C         141.4122  138.5173  158.8594 C.3     1  UNL1        0.1067
     10 C         142.7278  139.2002  158.6296 C.3     1  UNL1        0.1531
     11 C         143.1589  140.3200  159.5297 C.ar    1  UNL1        0.0018
     12 C         142.8272  141.7387  159.1734 C.ar    1  UNL1       -0.0020
     13 C         143.2583  142.8586  160.0735 C.ar    1  UNL1        0.0060
     14 C         144.0211  142.5596  161.3299 C.ar    1  UNL1        0.0748
     15 C         144.3529  141.1408  161.6863 C.ar    1  UNL1        0.0233
     16 C         143.9218  140.0210  160.7862 C.ar    1  UNL1       -0.0238
     17 C         144.2536  138.6021  161.1425 C.3     1  UNL1        0.0306
     18 C         145.1110  141.1531  162.9805 C.3     1  UNL1        0.2352
     19 O         145.2478  142.5794  163.4241 O.3     1  UNL1       -0.4404
     20 C         144.5742  143.4487  162.4039 C.2     1  UNL1        0.3413
     21 O         144.4717  144.9445  162.4498 O.2     1  UNL1       -0.2449
     22 C         143.0533  138.6427  156.1130 C.3     1  UNL1        0.1745
     23 O         143.6124  138.7632  157.4997 O.3     1  UNL1       -0.3478
     24 C         138.1421  139.2631  164.8594 C.3     1  UNL1        0.1131
     25 C         138.8108  139.8833  166.0502 C.ar    1  UNL1        0.0062
     26 C         138.5583  139.3336  167.4229 C.ar    1  UNL1        0.0009
     27 C         139.2270  139.9537  168.6138 C.ar    1  UNL1        0.0386
     28 C         140.1481  141.1235  168.4321 C.ar    1  UNL1        0.1672
     29 N         140.4006  141.6732  167.0594 N.ar    1  UNL1       -0.2252
     30 C         139.7319  141.0531  165.8685 C.ar    1  UNL1        0.0968
     31 N         140.8169  141.7438  169.6230 N.ar    1  UNL1       -0.1708
     32 C         141.8693  142.8119  169.5863 C.ar    1  UNL1        0.2272
     33 N         142.2534  143.1329  171.0003 N.ar    1  UNL1       -0.1044
     34 N         141.4383  142.2632  171.9108 N.ar    1  UNL1       -0.0222
     35 N         140.5506  141.4046  171.0596 N.ar    1  UNL1       -0.0371
@<TRIPOS>BOND
     1    22    23    1
     2    23    10    1
     3    10     9    1
     4     9     1    1
     5     1     2    1
     6     2     3    1
     7     3     4    1
     8     4     5   am
     9     5     6    2
    10     5    24    1
    11    24    25    1
    12    25    26   ar
    13    26    27   ar
    14    27    28   ar
    15    28    31    1
    16    31    32   ar
    17    32    33   ar
    18    33    34   ar
    19    34    35   ar
    20    28    29   ar
    21    29    30   ar
    22     4     7    1
    23     7     8    1
    24    10    11    1
    25    11    12   ar
    26    12    13   ar
    27    13    14   ar
    28    14    15   ar
    29    15    16   ar
    30    16    17    1
    31    15    18    1
    32    18    19    1
    33    19    20    1
    34    20    21    2
    35     8     1    1
    36    16    11   ar
    37    30    25   ar
    38    20    14    1
    39    35    31   ar
@<TRIPOS>MOLECULE
*****
 35 39 0 0 0
SMALL
GASTEIGER

@<TRIPOS>ATOM
      1 N         139.4662  139.7357  166.1959 N.3     1  UNL1       -0.2674
      2 C         138.8425  140.8860  165.4625 C.3     1  UNL1        0.0940
      3 C         138.3663  140.7062  164.0516 C.3     1  UNL1        0.1107
      4 N         138.5138  139.3761  163.3740 N.am    1  UNL1       -0.2764
      5 C         138.0375  139.1963  161.9630 C.2     1  UNL1        0.2302
      6 O         138.1850  137.8663  161.2854 O.2     1  UNL1       -0.2745
      7 C         139.1374  138.2258  164.1073 C.3     1  UNL1        0.1107
      8 C         139.6137  138.4056  165.5183 C.3     1  UNL1        0.0940
      9 C         139.9424  139.9155  167.6069 C.3     1  UNL1        0.1067
     10 C         141.3171  140.4542  167.8715 C.3     1  UNL1        0.1531
     11 C         142.1526  140.9681  166.7366 C.ar    1  UNL1        0.0018
     12 C         142.0381  142.4016  166.3102 C.ar    1  UNL1       -0.0020
     13 C         142.8736  142.9155  165.1753 C.ar    1  UNL1        0.0060
     14 C         143.8236  141.9959  164.4670 C.ar    1  UNL1        0.0748
     15 C         143.9381  140.5624  164.8935 C.ar    1  UNL1        0.0233
     16 C         143.1026  140.0484  166.0283 C.ar    1  UNL1       -0.0238
     17 C         143.2171  138.6149  166.4549 C.3     1  UNL1        0.0306
     18 C         144.9539  139.8966  164.0132 C.3     1  UNL1        0.2352
     19 O         145.4672  140.9186  163.0427 O.3     1  UNL1       -0.4404
     20 C         144.7686  142.2161  163.3231 C.2     1  UNL1        0.3413
     21 O         144.9783  143.5070  162.5886 O.2     1  UNL1       -0.2449
     22 C         143.1279  141.2154  169.5719 C.3     1  UNL1        0.1745
     23 O         141.8563  140.4790  169.2711 O.3     1  UNL1       -0.3478
     24 C         137.4138  140.3466  161.2295 C.3     1  UNL1        0.1131
     25 C         138.2812  141.3341  160.5067 C.ar    1  UNL1        0.0062
     26 C         138.9896  140.9296  159.2479 C.ar    1  UNL1        0.0009
     27 C         139.8570  141.9170  158.5250 C.ar    1  UNL1        0.0386
     28 C         140.0161  143.3089  159.0610 C.ar    1  UNL1        0.1672
     29 N         139.3077  143.7134  160.3198 N.ar    1  UNL1       -0.2252
     30 C         138.4403  142.7260  161.0427 C.ar    1  UNL1        0.0968
     31 N         140.8835  144.2965  158.3382 N.ar    1  UNL1       -0.1708
     32 C         141.1257  144.3400  156.8585 C.ar    1  UNL1        0.2272
     33 N         142.0529  145.4843  156.5741 N.ar    1  UNL1       -0.1044
     34 N         142.3838  146.1479  157.8780 N.ar    1  UNL1       -0.0222
     35 N         141.6611  145.4138  158.9682 N.ar    1  UNL1       -0.0371
@<TRIPOS>BOND
     1    22    23    1
     2    23    10    1
     3    10     9    1
     4     9     1    1
     5     1     2    1
     6     2     3    1
     7     3     4    1
     8     4     5   am
     9     5     6    2
    10     5    24    1
    11    24    25    1
    12    25    26   ar
    13    26    27   ar
    14    27    28   ar
    15    28    31    1
    16    31    32   ar
    17    32    33   ar
    18    33    34   ar
    19    34    35   ar
    20    28    29   ar
    21    29    30   ar
    22     4     7    1
    23     7     8    1
    24    10    11    1
    25    11    12   ar
    26    12    13   ar
    27    13    14   ar
    28    14    15   ar
    29    15    16   ar
    30    16    17    1
    31    15    18    1
    32    18    19    1
    33    19    20    1
    34    20    21    2
    35     8     1    1
    36    16    11   ar
    37    30    25   ar
    38    20    14    1
    39    35    31   ar
