@<TRIPOS>MOLECULE
*****
 40 42 0 0 0
SMALL
GASTEIGER

@<TRIPOS>ATOM
      1 C         139.3880  139.7790  160.8584 C.ar    1  UNL1        0.0597
      2 C         139.2444  138.9007  162.0658 C.ar    1  UNL1        0.0422
      3 C         138.6100  139.4393  163.3138 C.ar    1  UNL1        0.1485
      4 C         138.1193  140.8561  163.3543 C.ar    1  UNL1        0.0743
      5 C         138.2629  141.7344  162.1469 C.ar    1  UNL1        0.1417
      6 C         138.8972  141.1959  160.8989 C.ar    1  UNL1        0.0416
      7 N         141.5164  139.2125  159.4803 N.am    1  UNL1       -0.2644
      8 C         140.0224  139.2405  159.6103 C.2     1  UNL1        0.2508
      9 O         139.1626  138.7300  158.4922 O.2     1  UNL1       -0.2698
     10 H         142.0807  139.5476  160.2142 H       1  UNL1        0.1566
     11 N         143.1820  137.1692  156.6315 N.ar    1  UNL1       -0.2357
     12 C         143.0718  138.5216  155.9919 C.ar    1  UNL1        0.0988
     13 C         142.4344  139.4516  156.9813 C.ar    1  UNL1        0.0565
     14 C         142.1508  138.6740  158.2323 C.ar    1  UNL1        0.1557
     15 N         142.6128  137.2634  158.0160 N.ar    1  UNL1       -0.1534
     16 C         143.7600  135.9387  155.9977 C.3     1  UNL1        0.2423
     17 P         143.0299  134.6319  156.0939 P.3     1  UNL1        0.3677
     18 O         142.2999  133.3250  156.1902 O.2     1  UNL1       -0.2557
     19 O         141.9710  135.1552  155.1693 O.3     1  UNL1       -0.2928
     20 C         141.6301  134.1806  152.7853 C.3     1  UNL1        0.0352
     21 C         142.2276  135.2149  153.6926 C.3     1  UNL1        0.1515
     22 O         144.0888  134.1085  157.0186 O.3     1  UNL1       -0.2928
     23 C         144.4010  132.6416  157.0475 C.3     1  UNL1        0.1515
     24 C         145.4125  132.1091  158.0186 C.3     1  UNL1        0.0352
     25 O         138.4664  138.5609  164.5213 O.3     1  UNL1       -0.4534
     26 C         138.9362  139.0451  165.8610 C.ar    1  UNL1        0.1454
     27 C         140.3352  139.5614  166.0236 C.ar    1  UNL1        0.0388
     28 C         140.8049  140.0456  167.3633 C.ar    1  UNL1        0.0215
     29 C         139.8757  140.0134  168.5405 C.ar    1  UNL1        0.1059
     30 C         138.4768  139.4971  168.3778 C.ar    1  UNL1        0.0215
     31 C         138.0070  139.0130  167.0381 C.ar    1  UNL1        0.0388
     32 S         140.3454  140.4976  169.8802 S.O2    1  UNL1        0.0105
     33 C         140.8152  140.9818  171.2200 C.3     1  UNL1        0.1816
     34 O         139.1437  139.8748  170.5267 O.2     1  UNL1       -0.1686
     35 O         141.5472  141.1204  169.2338 O.2     1  UNL1       -0.1686
     36 O         137.7722  143.1513  162.1875 O.3     1  UNL1       -0.4761
     37 C         138.6363  144.2278  162.7742 C.3     1  UNL1        0.2012
     38 C         139.5944  144.9807  161.8993 C.3     1  UNL1        0.0503
     39 C         138.5425  144.5516  164.2359 C.3     1  UNL1        0.2363
     40 F         137.3369  144.1289  165.0218 F       1  UNL1       -0.2303
@<TRIPOS>BOND
     1    20    21    1
     2    21    19    1
     3    19    17    1
     4    17    18    2
     5    17    16    1
     6    16    11    1
     7    11    12   ar
     8    12    13   ar
     9    13    14   ar
    10    14     7    1
    11     7     8   am
    12     8     9    2
    13     8     1    1
    14     1     2   ar
    15     2     3   ar
    16     3    25    1
    17    25    26    1
    18    26    27   ar
    19    27    28   ar
    20    28    29   ar
    21    29    32    1
    22    32    33    1
    23    32    34    2
    24    32    35    2
    25    29    30   ar
    26    30    31   ar
    27     3     4   ar
    28     4     5   ar
    29     5    36    1
    30    36    37    1
    31    37    38    1
    32    37    39    1
    33    39    40    1
    34     5     6   ar
    35    14    15   ar
    36    17    22    1
    37    22    23    1
    38    23    24    1
    39    15    11   ar
    40     6     1   ar
    41    31    26   ar
    42     7    10    1
@<TRIPOS>MOLECULE
*****
 40 42 0 0 0
SMALL
GASTEIGER

@<TRIPOS>ATOM
      1 C         139.3986  139.7473  160.3942 C.ar    1  UNL1        0.0597
      2 C         139.2560  138.8431  161.5825 C.ar    1  UNL1        0.0422
      3 C         138.5785  139.3394  162.8253 C.ar    1  UNL1        0.1485
      4 C         138.0437  140.7397  162.8798 C.ar    1  UNL1        0.0743
      5 C         138.1863  141.6438  161.6915 C.ar    1  UNL1        0.1417
      6 C         138.8638  141.1476  160.4487 C.ar    1  UNL1        0.0416
      7 N         141.5729  139.1706  159.0941 N.am    1  UNL1       -0.2644
      8 C         140.0762  139.2510  159.1512 C.2     1  UNL1        0.2508
      9 O         139.2569  138.8353  157.9655 O.2     1  UNL1       -0.2698
     10 H         142.1106  139.4434  159.8723 H       1  UNL1        0.1566
     11 N         143.2593  137.2088  156.2004 N.ar    1  UNL1       -0.2357
     12 C         143.3266  138.6129  155.6766 C.ar    1  UNL1        0.0988
     13 C         142.7031  139.5186  156.6969 C.ar    1  UNL1        0.0565
     14 C         142.2504  138.6744  157.8511 C.ar    1  UNL1        0.1557
     15 N         142.5942  137.2469  157.5443 N.ar    1  UNL1       -0.1534
     16 C         143.7679  135.9823  155.5028 C.3     1  UNL1        0.2423
     17 P         143.0960  134.6598  155.7256 P.3     1  UNL1        0.3677
     18 O         142.4241  133.3373  155.9483 O.2     1  UNL1       -0.2557
     19 O         144.2916  134.1819  156.4950 O.3     1  UNL1       -0.2928
     20 C         145.2653  132.2921  157.9885 C.3     1  UNL1        0.0352
     21 C         144.1217  133.1814  157.5997 C.3     1  UNL1        0.1515
     22 O         141.9003  135.1377  154.9561 O.3     1  UNL1       -0.2928
     23 C         141.9414  135.1814  153.4573 C.3     1  UNL1        0.1515
     24 C         141.4780  136.4085  152.7297 C.3     1  UNL1        0.0352
     25 O         138.4358  138.4352  164.0137 O.3     1  UNL1       -0.4534
     26 C         138.8623  138.9086  165.3717 C.ar    1  UNL1        0.1454
     27 C         140.2559  139.4215  165.5837 C.ar    1  UNL1        0.0388
     28 C         140.6824  139.8948  166.9416 C.ar    1  UNL1        0.0215
     29 C         139.7153  139.8553  168.0876 C.ar    1  UNL1        0.1059
     30 C         138.3217  139.3423  167.8756 C.ar    1  UNL1        0.0215
     31 C         137.8953  138.8690  166.5176 C.ar    1  UNL1        0.0388
     32 S         140.1417  140.3286  169.4456 S.O2    1  UNL1        0.0105
     33 C         140.5682  140.8019  170.8035 C.3     1  UNL1        0.1816
     34 O         141.4652  140.7536  168.8818 O.2     1  UNL1       -0.1686
     35 O         138.8183  139.9036  170.0094 O.2     1  UNL1       -0.1686
     36 O         137.6515  143.0442  161.7460 O.3     1  UNL1       -0.4761
     37 C         138.2603  144.0436  162.6844 C.3     1  UNL1        0.2012
     38 C         139.3307  144.9746  162.1972 C.3     1  UNL1        0.0503
     39 C         137.7988  144.1119  164.1100 C.3     1  UNL1        0.2363
     40 F         138.4848  145.0305  165.0772 F       1  UNL1       -0.2303
@<TRIPOS>BOND
     1    20    21    1
     2    21    19    1
     3    19    17    1
     4    17    18    2
     5    17    16    1
     6    16    11    1
     7    11    12   ar
     8    12    13   ar
     9    13    14   ar
    10    14     7    1
    11     7     8   am
    12     8     9    2
    13     8     1    1
    14     1     2   ar
    15     2     3   ar
    16     3    25    1
    17    25    26    1
    18    26    27   ar
    19    27    28   ar
    20    28    29   ar
    21    29    32    1
    22    32    33    1
    23    32    34    2
    24    32    35    2
    25    29    30   ar
    26    30    31   ar
    27     3     4   ar
    28     4     5   ar
    29     5    36    1
    30    36    37    1
    31    37    38    1
    32    37    39    1
    33    39    40    1
    34     5     6   ar
    35    14    15   ar
    36    17    22    1
    37    22    23    1
    38    23    24    1
    39    15    11   ar
    40     6     1   ar
    41    31    26   ar
    42     7    10    1
@<TRIPOS>MOLECULE
*****
 40 42 0 0 0
SMALL
GASTEIGER

@<TRIPOS>ATOM
      1 C         142.0341  139.8672  160.8828 C.ar    1  UNL1        0.0597
      2 C         141.3744  139.0969  161.9880 C.ar    1  UNL1        0.0422
      3 C         140.7233  139.8262  163.1255 C.ar    1  UNL1        0.1485
      4 C         140.7318  141.3259  163.1579 C.ar    1  UNL1        0.0743
      5 C         141.3915  142.0962  162.0528 C.ar    1  UNL1        0.1417
      6 C         142.0427  141.3668  160.9152 C.ar    1  UNL1        0.0416
      7 N         141.8408  138.4877  158.6897 N.am    1  UNL1       -0.2644
      8 C         142.6853  139.1379  159.7452 C.2     1  UNL1        0.2508
      9 O         144.1810  139.0588  159.6632 O.2     1  UNL1       -0.2698
     10 H         140.8592  138.5396  158.7436 H       1  UNL1        0.1566
     11 N         143.2739  135.9820  156.0949 N.ar    1  UNL1       -0.2357
     12 C         143.7143  137.2904  155.5081 C.ar    1  UNL1        0.0988
     13 C         143.2310  138.3883  156.4088 C.ar    1  UNL1        0.0565
     14 C         142.4920  137.7584  157.5521 C.ar    1  UNL1        0.1557
     15 N         142.5186  136.2712  157.3581 N.ar    1  UNL1       -0.1534
     16 C         143.5419  134.6230  155.5195 C.3     1  UNL1        0.2423
     17 P         142.4582  133.5859  155.5088 P.3     1  UNL1        0.3677
     18 O         141.3745  132.5488  155.4982 O.2     1  UNL1       -0.2557
     19 O         141.8118  134.2732  154.3427 O.3     1  UNL1       -0.2928
     20 C         140.6382  133.5168  152.1518 C.3     1  UNL1        0.0352
     21 C         141.8832  133.6587  152.9762 C.3     1  UNL1        0.1515
     22 O         143.1046  132.8986  156.6749 O.3     1  UNL1       -0.2928
     23 C         144.5805  132.6308  156.6637 C.3     1  UNL1        0.1515
     24 C         145.2580  132.1121  157.8973 C.3     1  UNL1        0.0352
     25 O         140.0635  139.0559  164.2307 O.3     1  UNL1       -0.4534
     26 C         140.3691  139.3867  165.6615 C.ar    1  UNL1        0.1454
     27 C         141.7877  139.3692  166.1488 C.ar    1  UNL1        0.0388
     28 C         142.0933  139.6999  167.5797 C.ar    1  UNL1        0.0215
     29 C         140.9803  140.0481  168.5232 C.ar    1  UNL1        0.1059
     30 C         139.5618  140.0655  168.0358 C.ar    1  UNL1        0.0215
     31 C         139.2562  139.7348  166.6050 C.ar    1  UNL1        0.0388
     32 S         141.2859  140.3788  169.9540 S.O2    1  UNL1        0.0105
     33 C         141.5915  140.7095  171.3848 C.3     1  UNL1        0.1816
     34 O         140.0063  139.7217  170.3792 O.2     1  UNL1       -0.1686
     35 O         142.5655  141.0360  169.5288 O.2     1  UNL1       -0.1686
     36 O         141.4001  143.5958  162.0852 O.3     1  UNL1       -0.4761
     37 C         141.5928  144.3168  163.3863 C.3     1  UNL1        0.2012
     38 C         140.4105  144.8953  164.1055 C.3     1  UNL1        0.0503
     39 C         142.9680  144.4592  163.9683 C.3     1  UNL1        0.2363
     40 F         143.8927  145.5234  163.4559 F       1  UNL1       -0.2303
@<TRIPOS>BOND
     1    20    21    1
     2    21    19    1
     3    19    17    1
     4    17    18    2
     5    17    16    1
     6    16    11    1
     7    11    12   ar
     8    12    13   ar
     9    13    14   ar
    10    14     7    1
    11     7     8   am
    12     8     9    2
    13     8     1    1
    14     1     2   ar
    15     2     3   ar
    16     3    25    1
    17    25    26    1
    18    26    27   ar
    19    27    28   ar
    20    28    29   ar
    21    29    32    1
    22    32    33    1
    23    32    34    2
    24    32    35    2
    25    29    30   ar
    26    30    31   ar
    27     3     4   ar
    28     4     5   ar
    29     5    36    1
    30    36    37    1
    31    37    38    1
    32    37    39    1
    33    39    40    1
    34     5     6   ar
    35    14    15   ar
    36    17    22    1
    37    22    23    1
    38    23    24    1
    39    15    11   ar
    40     6     1   ar
    41    31    26   ar
    42     7    10    1
@<TRIPOS>MOLECULE
*****
 40 42 0 0 0
SMALL
GASTEIGER

@<TRIPOS>ATOM
      1 C         138.7794  140.6135  160.3784 C.ar    1  UNL1        0.0597
      2 C         138.7525  139.5699  161.4555 C.ar    1  UNL1        0.0422
      3 C         138.3847  139.9501  162.8591 C.ar    1  UNL1        0.1485
      4 C         138.0438  141.3739  163.1856 C.ar    1  UNL1        0.0743
      5 C         138.0708  142.4175  162.1085 C.ar    1  UNL1        0.1417
      6 C         138.4386  142.0373  160.7049 C.ar    1  UNL1        0.0416
      7 N         139.1571  138.7900  158.5667 N.am    1  UNL1       -0.2644
      8 C         139.1472  140.2334  158.9747 C.2     1  UNL1        0.2508
      9 O         139.5051  141.2967  157.9791 O.2     1  UNL1       -0.2698
     10 H         138.9222  138.0921  159.2202 H       1  UNL1        0.1566
     11 N         140.5400  137.2853  155.2669 N.ar    1  UNL1       -0.2357
     12 C         139.6416  138.3645  154.7392 C.ar    1  UNL1        0.0988
     13 C         139.0142  139.0595  155.9112 C.ar    1  UNL1        0.0565
     14 C         139.5249  138.4098  157.1630 C.ar    1  UNL1        0.1557
     15 N         140.4678  137.3133  156.7649 N.ar    1  UNL1       -0.1534
     16 C         141.3655  136.3435  154.4415 C.3     1  UNL1        0.2423
     17 P         142.6560  135.8046  154.9840 P.3     1  UNL1        0.3677
     18 O         143.9464  135.2656  155.5265 O.2     1  UNL1       -0.2557
     19 O         143.3631  137.0509  154.5404 O.3     1  UNL1       -0.2928
     20 C         143.4880  139.2568  155.9072 C.3     1  UNL1        0.0352
     21 C         144.0592  137.9171  155.5479 C.3     1  UNL1        0.1515
     22 O         141.9489  134.5582  155.4275 O.3     1  UNL1       -0.2928
     23 C         142.4152  133.2179  154.9415 C.3     1  UNL1        0.1515
     24 C         142.3057  132.8679  153.4870 C.3     1  UNL1        0.0352
     25 O         138.3577  138.9065  163.9362 O.3     1  UNL1       -0.4534
     26 C         138.8201  139.2468  165.3220 C.ar    1  UNL1        0.1454
     27 C         137.8880  139.0811  166.4855 C.ar    1  UNL1        0.0388
     28 C         138.3505  139.4215  167.8713 C.ar    1  UNL1        0.0215
     29 C         139.7450  139.9275  168.0935 C.ar    1  UNL1        0.1059
     30 C         140.6770  140.0932  166.9299 C.ar    1  UNL1        0.0215
     31 C         140.2146  139.7529  165.5442 C.ar    1  UNL1        0.0388
     32 S         140.2074  140.2679  169.4792 S.O2    1  UNL1        0.0105
     33 C         140.6698  140.6082  170.8650 C.3     1  UNL1        0.1816
     34 O         138.8971  139.7922  170.0333 O.2     1  UNL1       -0.1686
     35 O         141.5177  140.7435  168.9252 O.2     1  UNL1       -0.1686
     36 O         137.7299  143.8413  162.4351 O.3     1  UNL1       -0.4761
     37 C         138.7130  144.6963  163.1784 C.3     1  UNL1        0.2012
     38 C         138.6886  144.7368  164.6776 C.3     1  UNL1        0.0503
     39 C         139.7205  145.5109  162.4224 C.3     1  UNL1        0.2363
     40 F         139.2706  146.6714  161.5852 F       1  UNL1       -0.2303
@<TRIPOS>BOND
     1    20    21    1
     2    21    19    1
     3    19    17    1
     4    17    18    2
     5    17    16    1
     6    16    11    1
     7    11    12   ar
     8    12    13   ar
     9    13    14   ar
    10    14     7    1
    11     7     8   am
    12     8     9    2
    13     8     1    1
    14     1     2   ar
    15     2     3   ar
    16     3    25    1
    17    25    26    1
    18    26    27   ar
    19    27    28   ar
    20    28    29   ar
    21    29    32    1
    22    32    33    1
    23    32    34    2
    24    32    35    2
    25    29    30   ar
    26    30    31   ar
    27     3     4   ar
    28     4     5   ar
    29     5    36    1
    30    36    37    1
    31    37    38    1
    32    37    39    1
    33    39    40    1
    34     5     6   ar
    35    14    15   ar
    36    17    22    1
    37    22    23    1
    38    23    24    1
    39    15    11   ar
    40     6     1   ar
    41    31    26   ar
    42     7    10    1
@<TRIPOS>MOLECULE
*****
 40 42 0 0 0
SMALL
GASTEIGER

@<TRIPOS>ATOM
      1 C         141.0632  138.3216  159.9212 C.ar    1  UNL1        0.0597
      2 C         142.2215  137.7316  159.1729 C.ar    1  UNL1        0.0422
      3 C         142.1783  137.6378  157.6765 C.ar    1  UNL1        0.1485
      4 C         140.9766  138.1342  156.9284 C.ar    1  UNL1        0.0743
      5 C         139.8183  138.7243  157.6767 C.ar    1  UNL1        0.1417
      6 C         139.8615  138.8180  159.1731 C.ar    1  UNL1        0.0416
      7 N         141.8340  139.5491  162.0775 N.am    1  UNL1       -0.2644
      8 C         141.1064  138.4154  161.4177 C.2     1  UNL1        0.2508
      9 O         140.4221  137.3753  162.2544 O.2     1  UNL1       -0.2698
     10 H         142.2831  140.2317  161.5283 H       1  UNL1        0.1566
     11 N         141.4084  140.3120  165.8593 N.ar    1  UNL1       -0.2357
     12 C         142.4792  139.2620  165.8942 C.ar    1  UNL1        0.0988
     13 C         142.7689  138.8484  164.4816 C.ar    1  UNL1        0.0565
     14 C         141.8772  139.6428  163.5740 C.ar    1  UNL1        0.1557
     15 N         141.0365  140.5473  164.4254 N.ar    1  UNL1       -0.1534
     16 C         140.8141  141.0049  167.0495 C.3     1  UNL1        0.2423
     17 P         139.8186  140.2898  167.9141 P.3     1  UNL1        0.3677
     18 O         138.8232  139.5747  168.7787 O.2     1  UNL1       -0.2557
     19 O         138.9368  140.0737  166.7201 O.3     1  UNL1       -0.2928
     20 C         138.7062  137.8415  165.4108 C.3     1  UNL1        0.0352
     21 C         138.2599  138.7505  166.5174 C.3     1  UNL1        0.1515
     22 O         140.7005  140.5060  169.1081 O.3     1  UNL1       -0.2928
     23 C         140.1588  141.1942  170.3259 C.3     1  UNL1        0.1515
     24 C         139.9297  142.6765  170.3100 C.3     1  UNL1        0.0352
     25 O         143.3366  137.0477  156.9282 O.3     1  UNL1       -0.4534
     26 C         143.3024  135.6086  156.5066 C.ar    1  UNL1        0.1454
     27 C         143.5380  134.5253  157.5171 C.ar    1  UNL1        0.0388
     28 C         143.5037  133.0862  157.0955 C.ar    1  UNL1        0.0215
     29 C         143.2338  132.7303  155.6635 C.ar    1  UNL1        0.1059
     30 C         142.9982  133.8136  154.6531 C.ar    1  UNL1        0.0215
     31 C         143.0325  135.2528  155.0747 C.ar    1  UNL1        0.0388
     32 S         143.1995  131.2912  155.2420 S.O2    1  UNL1        0.0105
     33 C         143.1652  129.8521  154.8204 C.3     1  UNL1        0.1816
     34 O         141.7219  131.3956  155.0056 O.2     1  UNL1       -0.1686
     35 O         144.6771  131.1868  155.4783 O.2     1  UNL1       -0.1686
     36 O         138.6166  139.2207  156.9286 O.3     1  UNL1       -0.4761
     37 C         138.7205  139.5329  155.4651 C.3     1  UNL1        0.2012
     38 C         139.2867  140.8476  155.0171 C.3     1  UNL1        0.0503
     39 C         138.2581  138.5302  154.4497 C.3     1  UNL1        0.2363
     40 F         136.8180  138.1129  154.4095 F       1  UNL1       -0.2303
@<TRIPOS>BOND
     1    20    21    1
     2    21    19    1
     3    19    17    1
     4    17    18    2
     5    17    16    1
     6    16    11    1
     7    11    12   ar
     8    12    13   ar
     9    13    14   ar
    10    14     7    1
    11     7     8   am
    12     8     9    2
    13     8     1    1
    14     1     2   ar
    15     2     3   ar
    16     3    25    1
    17    25    26    1
    18    26    27   ar
    19    27    28   ar
    20    28    29   ar
    21    29    32    1
    22    32    33    1
    23    32    34    2
    24    32    35    2
    25    29    30   ar
    26    30    31   ar
    27     3     4   ar
    28     4     5   ar
    29     5    36    1
    30    36    37    1
    31    37    38    1
    32    37    39    1
    33    39    40    1
    34     5     6   ar
    35    14    15   ar
    36    17    22    1
    37    22    23    1
    38    23    24    1
    39    15    11   ar
    40     6     1   ar
    41    31    26   ar
    42     7    10    1
@<TRIPOS>MOLECULE
*****
 40 42 0 0 0
SMALL
GASTEIGER

@<TRIPOS>ATOM
      1 C         137.7856  141.6836  157.6359 C.ar    1  UNL1        0.0597
      2 C         136.7520  140.9215  156.8607 C.ar    1  UNL1        0.0422
      3 C         136.2194  141.4774  155.5734 C.ar    1  UNL1        0.1485
      4 C         136.7204  142.7952  155.0612 C.ar    1  UNL1        0.0743
      5 C         137.7539  143.5572  155.8364 C.ar    1  UNL1        0.1417
      6 C         138.2865  143.0014  157.1238 C.ar    1  UNL1        0.0416
      7 N         137.7322  139.8721  159.4976 N.am    1  UNL1       -0.2644
      8 C         138.3182  141.1277  158.9234 C.2     1  UNL1        0.2508
      9 O         139.4370  141.8277  159.6365 O.2     1  UNL1       -0.2698
     10 H         136.9979  139.4127  159.0295 H       1  UNL1        0.1566
     11 N         138.6411  138.9276  163.1510 N.ar    1  UNL1       -0.2357
     12 C         139.5280  137.9943  162.3812 C.ar    1  UNL1        0.0988
     13 C         139.2954  138.2346  160.9188 C.ar    1  UNL1        0.0565
     14 C         138.2648  139.3163  160.7850 C.ar    1  UNL1        0.1557
     15 N         137.8605  139.7445  162.1645 N.ar    1  UNL1       -0.1534
     16 C         138.5507  139.0264  164.6449 C.3     1  UNL1        0.2423
     17 P         139.1491  140.2037  165.3563 P.3     1  UNL1        0.3677
     18 O         139.7476  141.3809  166.0677 O.2     1  UNL1       -0.2557
     19 O         138.0332  141.0728  164.8570 O.3     1  UNL1       -0.2928
     20 C         137.7085  143.2066  163.4110 C.3     1  UNL1        0.0352
     21 C         138.2664  142.5373  164.6319 C.3     1  UNL1        0.1515
     22 O         140.2651  139.3345  165.8557 O.3     1  UNL1       -0.2928
     23 C         141.6089  139.3836  165.1909 C.3     1  UNL1        0.1515
     24 C         142.5489  138.2211  165.3128 C.3     1  UNL1        0.0352
     25 O         135.1858  140.7153  154.7981 O.3     1  UNL1       -0.4534
     26 C         133.8611  140.3973  155.4257 C.ar    1  UNL1        0.1454
     27 C         133.6649  139.0952  156.1442 C.ar    1  UNL1        0.0388
     28 C         132.3401  138.7772  156.7719 C.ar    1  UNL1        0.0215
     29 C         131.2116  139.7612  156.6811 C.ar    1  UNL1        0.1059
     30 C         131.4078  141.0632  155.9626 C.ar    1  UNL1        0.0215
     31 C         132.7326  141.3813  155.3349 C.ar    1  UNL1        0.0388
     32 S         129.8869  139.4432  157.3087 S.O2    1  UNL1        0.0105
     33 C         128.5622  139.1252  157.9364 C.3     1  UNL1        0.1816
     34 O         129.2131  140.4020  156.3725 O.2     1  UNL1       -0.1686
     35 O         130.5607  138.4843  158.2450 O.2     1  UNL1       -0.1686
     36 O         138.2549  144.8751  155.3243 O.3     1  UNL1       -0.4761
     37 C         139.6535  145.3183  155.6362 C.3     1  UNL1        0.2012
     38 C         140.8175  144.6662  154.9508 C.3     1  UNL1        0.0503
     39 C         139.8882  146.4138  156.6338 C.3     1  UNL1        0.2363
     40 F         139.9644  146.0921  158.0969 F       1  UNL1       -0.2303
@<TRIPOS>BOND
     1    20    21    1
     2    21    19    1
     3    19    17    1
     4    17    18    2
     5    17    16    1
     6    16    11    1
     7    11    12   ar
     8    12    13   ar
     9    13    14   ar
    10    14     7    1
    11     7     8   am
    12     8     9    2
    13     8     1    1
    14     1     2   ar
    15     2     3   ar
    16     3    25    1
    17    25    26    1
    18    26    27   ar
    19    27    28   ar
    20    28    29   ar
    21    29    32    1
    22    32    33    1
    23    32    34    2
    24    32    35    2
    25    29    30   ar
    26    30    31   ar
    27     3     4   ar
    28     4     5   ar
    29     5    36    1
    30    36    37    1
    31    37    38    1
    32    37    39    1
    33    39    40    1
    34     5     6   ar
    35    14    15   ar
    36    17    22    1
    37    22    23    1
    38    23    24    1
    39    15    11   ar
    40     6     1   ar
    41    31    26   ar
    42     7    10    1
@<TRIPOS>MOLECULE
*****
 40 42 0 0 0
SMALL
GASTEIGER

@<TRIPOS>ATOM
      1 C         141.3588  145.1173  158.5500 C.ar    1  UNL1        0.0597
      2 C         140.1785  145.8631  158.0019 C.ar    1  UNL1        0.0422
      3 C         140.0200  146.0314  156.5198 C.ar    1  UNL1        0.1485
      4 C         141.0420  145.4539  155.5859 C.ar    1  UNL1        0.0743
      5 C         142.2223  144.7081  156.1340 C.ar    1  UNL1        0.1417
      6 C         142.3807  144.5398  157.6161 C.ar    1  UNL1        0.0416
      7 N         142.6454  144.1240  160.5769 N.am    1  UNL1       -0.2644
      8 C         141.5173  144.9489  160.0321 C.2     1  UNL1        0.2508
      9 O         140.5476  145.6055  160.9694 O.2     1  UNL1       -0.2698
     10 H         143.2819  143.6931  159.9617 H       1  UNL1        0.1566
     11 N         142.6038  143.0925  164.3185 N.ar    1  UNL1       -0.2357
     12 C         143.4918  144.3007  164.3608 C.ar    1  UNL1        0.0988
     13 C         143.6155  144.8342  162.9643 C.ar    1  UNL1        0.0565
     14 C         142.8039  143.9556  162.0590 C.ar    1  UNL1        0.1557
     15 N         142.1787  142.8792  162.8959 N.ar    1  UNL1       -0.1534
     16 C         142.2101  142.2462  165.4926 C.3     1  UNL1        0.2423
     17 P         140.7987  141.7554  165.6238 P.3     1  UNL1        0.3677
     18 O         139.3874  141.2647  165.7551 O.2     1  UNL1       -0.2557
     19 O         141.2559  140.3593  165.3204 O.3     1  UNL1       -0.2928
     20 C         140.6801  137.8740  164.8293 C.3     1  UNL1        0.0352
     21 C         140.2551  139.3081  164.9420 C.3     1  UNL1        0.1515
     22 O         140.3416  143.1515  165.9272 O.3     1  UNL1       -0.2928
     23 C         139.1662  143.7310  165.1974 C.3     1  UNL1        0.1515
     24 C         139.3604  144.8860  164.2602 C.3     1  UNL1        0.0352
     25 O         138.8397  146.7773  155.9716 O.3     1  UNL1       -0.4534
     26 C         138.9875  148.2089  155.5489 C.ar    1  UNL1        0.1454
     27 C         138.4710  149.3080  156.4294 C.ar    1  UNL1        0.0388
     28 C         138.6189  150.7396  156.0067 C.ar    1  UNL1        0.0215
     29 C         139.2831  151.0720  154.7035 C.ar    1  UNL1        0.1059
     30 C         139.7995  149.9729  153.8230 C.ar    1  UNL1        0.0215
     31 C         139.6517  148.5413  154.2457 C.ar    1  UNL1        0.0388
     32 S         139.4309  152.5036  154.2808 S.O2    1  UNL1        0.0105
     33 C         139.5787  153.9352  153.8580 C.3     1  UNL1        0.1816
     34 O         138.8945  152.9510  155.6082 O.2     1  UNL1       -0.1686
     35 O         139.9673  152.0563  152.9533 O.2     1  UNL1       -0.1686
     36 O         143.2442  144.1307  155.2001 O.3     1  UNL1       -0.4761
     37 C         143.7048  142.7140  155.3755 C.3     1  UNL1        0.2012
     38 C         142.7206  141.5869  155.2707 C.3     1  UNL1        0.0503
     39 C         145.1497  142.4243  155.6557 C.3     1  UNL1        0.2363
     40 F         145.5409  141.7107  156.9157 F       1  UNL1       -0.2303
@<TRIPOS>BOND
     1    20    21    1
     2    21    19    1
     3    19    17    1
     4    17    18    2
     5    17    16    1
     6    16    11    1
     7    11    12   ar
     8    12    13   ar
     9    13    14   ar
    10    14     7    1
    11     7     8   am
    12     8     9    2
    13     8     1    1
    14     1     2   ar
    15     2     3   ar
    16     3    25    1
    17    25    26    1
    18    26    27   ar
    19    27    28   ar
    20    28    29   ar
    21    29    32    1
    22    32    33    1
    23    32    34    2
    24    32    35    2
    25    29    30   ar
    26    30    31   ar
    27     3     4   ar
    28     4     5   ar
    29     5    36    1
    30    36    37    1
    31    37    38    1
    32    37    39    1
    33    39    40    1
    34     5     6   ar
    35    14    15   ar
    36    17    22    1
    37    22    23    1
    38    23    24    1
    39    15    11   ar
    40     6     1   ar
    41    31    26   ar
    42     7    10    1
@<TRIPOS>MOLECULE
*****
 40 42 0 0 0
SMALL
GASTEIGER

@<TRIPOS>ATOM
      1 C         141.2285  145.3662  158.3449 C.ar    1  UNL1        0.0597
      2 C         140.0565  146.1512  157.8347 C.ar    1  UNL1        0.0422
      3 C         139.9375  146.4549  156.3706 C.ar    1  UNL1        0.1485
      4 C         140.9903  145.9736  155.4168 C.ar    1  UNL1        0.0743
      5 C         142.1622  145.1886  155.9270 C.ar    1  UNL1        0.1417
      6 C         142.2813  144.8849  157.3910 C.ar    1  UNL1        0.0416
      7 N         142.4773  144.2119  160.3091 N.am    1  UNL1       -0.2644
      8 C         141.3476  145.0624  159.8090 C.2     1  UNL1        0.2508
      9 O         140.3368  145.6093  160.7731 O.2     1  UNL1       -0.2698
     10 H         143.1407  143.8529  159.6763 H       1  UNL1        0.1566
     11 N         142.3103  142.8616  163.9443 N.ar    1  UNL1       -0.2357
     12 C         143.2493  144.0199  164.1082 C.ar    1  UNL1        0.0988
     13 C         143.4261  144.6667  162.7663 C.ar    1  UNL1        0.0565
     14 C         142.5964  143.9081  161.7732 C.ar    1  UNL1        0.1557
     15 N         141.9068  142.7926  162.5012 N.ar    1  UNL1       -0.1534
     16 C         141.8548  141.9352  165.0323 C.3     1  UNL1        0.2423
     17 P         140.3897  141.7523  165.2973 P.3     1  UNL1        0.3677
     18 O         138.9247  141.5693  165.5622 O.2     1  UNL1       -0.2557
     19 O         140.3171  143.1424  165.8559 O.3     1  UNL1       -0.2928
     20 C         139.3362  144.8356  164.1468 C.3     1  UNL1        0.0352
     21 C         139.2150  144.0658  165.4285 C.3     1  UNL1        0.1515
     22 O         140.4623  140.3620  164.7386 O.3     1  UNL1       -0.2928
     23 C         139.2029  139.6339  164.3730 C.3     1  UNL1        0.1515
     24 C         139.1291  138.1429  164.5195 C.3     1  UNL1        0.0352
     25 O         138.7655  147.2400  155.8604 O.3     1  UNL1       -0.4534
     26 C         138.9601  148.6434  155.3680 C.ar    1  UNL1        0.1454
     27 C         138.4194  149.7975  156.1590 C.ar    1  UNL1        0.0388
     28 C         138.6140  151.2010  155.6666 C.ar    1  UNL1        0.0215
     29 C         139.3493  151.4503  154.3832 C.ar    1  UNL1        0.1059
     30 C         139.8899  150.2962  153.5922 C.ar    1  UNL1        0.0215
     31 C         139.6954  148.8928  154.0846 C.ar    1  UNL1        0.0388
     32 S         139.5439  152.8538  153.8907 S.O2    1  UNL1        0.0105
     33 C         139.7385  154.2572  153.3983 C.3     1  UNL1        0.1816
     34 O         138.1142  152.8934  153.4386 O.2     1  UNL1       -0.1686
     35 O         140.9736  152.8142  154.3428 O.2     1  UNL1       -0.1686
     36 O         143.2151  144.7073  154.9731 O.3     1  UNL1       -0.4761
     37 C         142.9387  144.6868  153.4990 C.3     1  UNL1        0.2012
     38 C         143.4551  145.7901  152.6236 C.3     1  UNL1        0.0503
     39 C         142.1458  143.5631  152.9000 C.3     1  UNL1        0.2363
     40 F         142.6227  142.1483  153.0448 F       1  UNL1       -0.2303
@<TRIPOS>BOND
     1    20    21    1
     2    21    19    1
     3    19    17    1
     4    17    18    2
     5    17    16    1
     6    16    11    1
     7    11    12   ar
     8    12    13   ar
     9    13    14   ar
    10    14     7    1
    11     7     8   am
    12     8     9    2
    13     8     1    1
    14     1     2   ar
    15     2     3   ar
    16     3    25    1
    17    25    26    1
    18    26    27   ar
    19    27    28   ar
    20    28    29   ar
    21    29    32    1
    22    32    33    1
    23    32    34    2
    24    32    35    2
    25    29    30   ar
    26    30    31   ar
    27     3     4   ar
    28     4     5   ar
    29     5    36    1
    30    36    37    1
    31    37    38    1
    32    37    39    1
    33    39    40    1
    34     5     6   ar
    35    14    15   ar
    36    17    22    1
    37    22    23    1
    38    23    24    1
    39    15    11   ar
    40     6     1   ar
    41    31    26   ar
    42     7    10    1
@<TRIPOS>MOLECULE
*****
 40 42 0 0 0
SMALL
GASTEIGER

@<TRIPOS>ATOM
      1 C         141.6836  138.4798  158.8435 C.ar    1  UNL1        0.0597
      2 C         140.9668  139.4231  157.9235 C.ar    1  UNL1        0.0422
      3 C         141.2302  139.3762  156.4476 C.ar    1  UNL1        0.1485
      4 C         142.2103  138.3862  155.8916 C.ar    1  UNL1        0.0743
      5 C         142.9271  137.4429  156.8116 C.ar    1  UNL1        0.1417
      6 C         142.6637  137.4897  158.2875 C.ar    1  UNL1        0.0416
      7 N         142.3179  137.7853  161.2653 N.am    1  UNL1       -0.2644
      8 C         141.4202  138.5266  160.3195 C.2     1  UNL1        0.2508
      9 O         140.2592  139.3146  160.8495 O.2     1  UNL1       -0.2698
     10 H         143.0800  137.2681  160.9174 H       1  UNL1        0.1566
     11 N         142.1876  138.4201  165.0923 N.ar    1  UNL1       -0.2357
     12 C         141.1109  137.3880  164.9329 C.ar    1  UNL1        0.0988
     13 C         141.0287  137.0246  163.4799 C.ar    1  UNL1        0.0565
     14 C         142.0546  137.8321  162.7414 C.ar    1  UNL1        0.1557
     15 N         142.7708  138.6946  163.7379 N.ar    1  UNL1       -0.1534
     16 C         142.6074  139.0646  166.3800 C.3     1  UNL1        0.2423
     17 P         142.1010  140.4312  166.7349 P.3     1  UNL1        0.3677
     18 O         141.5944  141.7977  167.0898 O.2     1  UNL1       -0.2557
     19 O         143.3326  141.0432  166.1363 O.3     1  UNL1       -0.2928
     20 C         144.2868  143.2981  165.2674 C.3     1  UNL1        0.0352
     21 C         143.2166  142.2473  165.2493 C.3     1  UNL1        0.1515
     22 O         140.8692  139.8191  167.3336 O.3     1  UNL1       -0.2928
     23 C         139.5147  140.1945  166.8098 C.3     1  UNL1        0.1515
     24 C         138.4194  139.1709  166.7609 C.3     1  UNL1        0.0352
     25 O         140.5134  140.3196  155.5275 O.3     1  UNL1       -0.4534
     26 C         139.0181  140.4265  155.5794 C.ar    1  UNL1        0.1454
     27 C         138.1703  139.4774  154.7853 C.ar    1  UNL1        0.0388
     28 C         136.6750  139.5844  154.8372 C.ar    1  UNL1        0.0215
     29 C         136.0276  140.6405  155.6831 C.ar    1  UNL1        0.1059
     30 C         136.8754  141.5896  156.4771 C.ar    1  UNL1        0.0215
     31 C         138.3707  141.4826  156.4252 C.ar    1  UNL1        0.0388
     32 S         134.5323  140.7475  155.7350 S.O2    1  UNL1        0.0105
     33 C         133.0370  140.8545  155.7868 C.3     1  UNL1        0.1816
     34 O         134.5447  141.5385  154.4605 O.2     1  UNL1       -0.1686
     35 O         134.5199  139.9566  157.0094 O.2     1  UNL1       -0.1686
     36 O         143.9072  136.4528  156.2557 O.3     1  UNL1       -0.4761
     37 C         143.4478  135.0778  155.8709 C.3     1  UNL1        0.2012
     38 C         142.9341  134.8190  154.4855 C.3     1  UNL1        0.0503
     39 C         143.5019  133.9615  156.8714 C.3     1  UNL1        0.2363
     40 F         143.7466  134.2639  158.3200 F       1  UNL1       -0.2303
@<TRIPOS>BOND
     1    20    21    1
     2    21    19    1
     3    19    17    1
     4    17    18    2
     5    17    16    1
     6    16    11    1
     7    11    12   ar
     8    12    13   ar
     9    13    14   ar
    10    14     7    1
    11     7     8   am
    12     8     9    2
    13     8     1    1
    14     1     2   ar
    15     2     3   ar
    16     3    25    1
    17    25    26    1
    18    26    27   ar
    19    27    28   ar
    20    28    29   ar
    21    29    32    1
    22    32    33    1
    23    32    34    2
    24    32    35    2
    25    29    30   ar
    26    30    31   ar
    27     3     4   ar
    28     4     5   ar
    29     5    36    1
    30    36    37    1
    31    37    38    1
    32    37    39    1
    33    39    40    1
    34     5     6   ar
    35    14    15   ar
    36    17    22    1
    37    22    23    1
    38    23    24    1
    39    15    11   ar
    40     6     1   ar
    41    31    26   ar
    42     7    10    1
