@<TRIPOS>MOLECULE
*****
 29 32 0 0 0
SMALL
GASTEIGER

@<TRIPOS>ATOM
      1 C         143.7079  142.5080  165.7535 C.3     1  UNL1        0.0324
      2 C         143.2169  141.2295  165.1417 C.ar    1  UNL1       -0.0071
      3 C         143.3218  141.0182  163.6604 C.ar    1  UNL1        0.0115
      4 C         142.8308  139.7397  163.0485 C.ar    1  UNL1        0.0476
      5 C         142.2349  138.6725  163.9180 C.ar    1  UNL1        0.0158
      6 C         142.1301  138.8838  165.3993 C.ar    1  UNL1        0.0156
      7 C         142.6211  140.1623  166.0111 C.ar    1  UNL1        0.0466
      8 N         142.9357  139.5284  161.5671 N.pl3   1  UNL1       -0.3061
      9 C         143.8884  140.2262  160.6423 C.3     1  UNL1        0.0923
     10 C         143.6478  139.7113  159.2541 C.3     1  UNL1        0.0391
     11 C         142.5463  138.6952  159.3211 C.3     1  UNL1        0.0790
     12 C         142.1062  138.5822  160.7506 C.3     1  UNL1        0.1067
     13 N         141.9837  137.9271  158.1620 N.3     1  UNL1       -0.2736
     14 C         142.7006  136.8729  157.3717 C.3     1  UNL1        0.0721
     15 C         141.7654  136.3725  156.3110 C.3     1  UNL1        0.0187
     16 C         140.4705  137.1175  156.4458 C.3     1  UNL1        0.0174
     17 C         140.6054  138.0783  157.5898 C.3     1  UNL1        0.0576
     18 C         139.5477  139.0242  158.0762 C.3     1  UNL1        0.0173
     19 N         142.5162  140.3735  167.4925 N.am    1  UNL1       -0.2805
     20 C         141.4091  141.2160  168.0534 C.2     1  UNL1        0.2535
     21 O         140.4069  141.8471  167.1330 O.2     1  UNL1       -0.2697
     22 H         143.1740  139.9593  168.0966 H       1  UNL1        0.1552
     23 C         141.3042  141.4272  169.5348 C.ar    1  UNL1        0.1032
     24 C         140.1447  141.0346  170.4015 C.ar    1  UNL1        0.1050
     25 C         138.8864  140.3617  169.9390 C.3     1  UNL1        0.0558
     26 N         140.4643  141.4329  171.8119 N.ar    1  UNL1       -0.0816
     27 O         141.8215  142.0718  171.8169 O.2     1  UNL1       -0.3579
     28 C         142.3406  142.0683  170.4095 C.ar    1  UNL1        0.1588
     29 C         143.6637  142.6106  169.9564 C.3     1  UNL1        0.0755
@<TRIPOS>BOND
     1     1     2    1
     2     2     3   ar
     3     3     4   ar
     4     4     8    1
     5     8     9    1
     6     9    10    1
     7    10    11    1
     8    11    13    1
     9    13    14    1
    10    14    15    1
    11    15    16    1
    12    16    17    1
    13    17    18    1
    14    11    12    1
    15     4     5   ar
    16     5     6   ar
    17     6     7   ar
    18     7    19    1
    19    19    20   am
    20    20    21    2
    21    20    23    1
    22    23    24   ar
    23    24    25    1
    24    24    26   ar
    25    26    27   ar
    26    27    28   ar
    27    28    29    1
    28     7     2   ar
    29    28    23   ar
    30    12     8    1
    31    17    13    1
    32    19    22    1
@<TRIPOS>MOLECULE
*****
 29 32 0 0 0
SMALL
GASTEIGER

@<TRIPOS>ATOM
      1 C         143.7042  142.5133  165.7516 C.3     1  UNL1        0.0324
      2 C         143.2170  141.2331  165.1403 C.ar    1  UNL1       -0.0071
      3 C         143.3222  141.0216  163.6591 C.ar    1  UNL1        0.0115
      4 C         142.8350  139.7414  163.0478 C.ar    1  UNL1        0.0476
      5 C         142.2425  138.6727  163.9177 C.ar    1  UNL1        0.0158
      6 C         142.1373  138.8842  165.3990 C.ar    1  UNL1        0.0156
      7 C         142.6245  140.1644  166.0103 C.ar    1  UNL1        0.0466
      8 N         142.9402  139.5299  161.5664 N.pl3   1  UNL1       -0.3061
      9 C         143.8814  140.2400  160.6391 C.3     1  UNL1        0.0923
     10 C         143.6456  139.7201  159.2520 C.3     1  UNL1        0.0391
     11 C         142.5587  138.6887  159.3220 C.3     1  UNL1        0.0790
     12 C         142.1227  138.5712  160.7524 C.3     1  UNL1        0.1067
     13 N         142.0049  137.9114  158.1648 N.3     1  UNL1       -0.2736
     14 C         142.7191  136.8337  157.4043 C.3     1  UNL1        0.0721
     15 C         141.7954  136.3315  156.3344 C.3     1  UNL1        0.0187
     16 C         140.5104  137.0989  156.4338 C.3     1  UNL1        0.0174
     17 C         140.6399  138.0753  157.5651 C.3     1  UNL1        0.0576
     18 C         139.5889  139.0454  158.0172 C.3     1  UNL1        0.0173
     19 N         142.5193  140.3759  167.4916 N.am    1  UNL1       -0.2805
     20 C         141.3832  141.1763  168.0561 C.2     1  UNL1        0.2535
     21 O         140.3524  141.7653  167.1393 O.2     1  UNL1       -0.2697
     22 H         143.1958  139.9894  168.0933 H       1  UNL1        0.1552
     23 C         141.2780  141.3878  169.5374 C.ar    1  UNL1        0.1032
     24 C         142.3196  142.0168  170.4145 C.ar    1  UNL1        0.1050
     25 C         143.6495  142.5448  169.9642 C.3     1  UNL1        0.0558
     26 N         141.7980  142.0252  171.8208 N.ar    1  UNL1       -0.0816
     27 O         140.4339  141.4013  171.8129 O.2     1  UNL1       -0.3579
     28 C         140.1124  141.0074  170.4016 C.ar    1  UNL1        0.1588
     29 C         138.8477  140.3487  169.9364 C.3     1  UNL1        0.0755
@<TRIPOS>BOND
     1     1     2    1
     2     2     3   ar
     3     3     4   ar
     4     4     8    1
     5     8     9    1
     6     9    10    1
     7    10    11    1
     8    11    13    1
     9    13    14    1
    10    14    15    1
    11    15    16    1
    12    16    17    1
    13    17    18    1
    14    11    12    1
    15     4     5   ar
    16     5     6   ar
    17     6     7   ar
    18     7    19    1
    19    19    20   am
    20    20    21    2
    21    20    23    1
    22    23    24   ar
    23    24    25    1
    24    24    26   ar
    25    26    27   ar
    26    27    28   ar
    27    28    29    1
    28     7     2   ar
    29    28    23   ar
    30    12     8    1
    31    17    13    1
    32    19    22    1
@<TRIPOS>MOLECULE
*****
 29 32 0 0 0
SMALL
GASTEIGER

@<TRIPOS>ATOM
      1 C         143.6554  138.2624  166.3872 C.3     1  UNL1        0.0324
      2 C         142.7668  138.9126  165.3685 C.ar    1  UNL1       -0.0071
      3 C         143.0525  138.7419  163.9059 C.ar    1  UNL1        0.0115
      4 C         142.1639  139.3920  162.8873 C.ar    1  UNL1        0.0476
      5 C         140.9896  140.2128  163.3312 C.ar    1  UNL1        0.0158
      6 C         140.7038  140.3835  164.7937 C.ar    1  UNL1        0.0156
      7 C         141.5924  139.7334  165.8124 C.ar    1  UNL1        0.0466
      8 N         142.4497  139.2212  161.4246 N.pl3   1  UNL1       -0.3061
      9 C         143.4540  139.9980  160.6259 C.3     1  UNL1        0.0923
     10 C         143.4063  139.5006  159.2116 C.3     1  UNL1        0.0391
     11 C         142.3725  138.4163  159.1362 C.3     1  UNL1        0.0790
     12 C         141.7813  138.2437  160.5039 C.3     1  UNL1        0.1067
     13 N         141.9960  137.6408  157.9087 N.3     1  UNL1       -0.2736
     14 C         142.8019  136.5450  157.2765 C.3     1  UNL1        0.0721
     15 C         142.0516  136.0520  156.0748 C.3     1  UNL1        0.0187
     16 C         140.7819  136.8431  155.9645 C.3     1  UNL1        0.0174
     17 C         140.7476  137.8250  157.0978 C.3     1  UNL1        0.0576
     18 C         139.6564  138.8170  157.3722 C.3     1  UNL1        0.0173
     19 N         141.3066  139.9042  167.2751 N.am    1  UNL1       -0.2805
     20 C         141.8641  141.0835  168.0155 C.2     1  UNL1        0.2535
     21 O         142.7074  142.0922  167.2933 O.2     1  UNL1       -0.2697
     22 H         140.7532  139.2422  167.7490 H       1  UNL1        0.1552
     23 C         141.5784  141.2543  169.4781 C.ar    1  UNL1        0.1032
     24 C         140.8870  142.4256  170.1105 C.ar    1  UNL1        0.1050
     25 C         140.3600  143.6318  169.3913 C.3     1  UNL1        0.0558
     26 N         140.8151  142.1789  171.5883 N.ar    1  UNL1       -0.0816
     27 O         141.4621  140.8550  171.8693 O.2     1  UNL1       -0.3579
     28 C         141.9338  140.2836  170.5650 C.ar    1  UNL1        0.1588
     29 C         142.6374  138.9718  170.3803 C.3     1  UNL1        0.0755
@<TRIPOS>BOND
     1     1     2    1
     2     2     3   ar
     3     3     4   ar
     4     4     8    1
     5     8     9    1
     6     9    10    1
     7    10    11    1
     8    11    13    1
     9    13    14    1
    10    14    15    1
    11    15    16    1
    12    16    17    1
    13    17    18    1
    14    11    12    1
    15     4     5   ar
    16     5     6   ar
    17     6     7   ar
    18     7    19    1
    19    19    20   am
    20    20    21    2
    21    20    23    1
    22    23    24   ar
    23    24    25    1
    24    24    26   ar
    25    26    27   ar
    26    27    28   ar
    27    28    29    1
    28     7     2   ar
    29    28    23   ar
    30    12     8    1
    31    17    13    1
    32    19    22    1
@<TRIPOS>MOLECULE
*****
 29 32 0 0 0
SMALL
GASTEIGER

@<TRIPOS>ATOM
      1 C         138.4814  138.8486  166.0781 C.3     1  UNL1        0.0324
      2 C         139.7046  139.0453  165.2324 C.ar    1  UNL1       -0.0071
      3 C         139.6373  138.8162  163.7516 C.ar    1  UNL1        0.0115
      4 C         140.8605  139.0129  162.9059 C.ar    1  UNL1        0.0476
      5 C         142.1509  139.4386  163.5411 C.ar    1  UNL1        0.0158
      6 C         142.2182  139.6677  165.0219 C.ar    1  UNL1        0.0156
      7 C         140.9950  139.4710  165.8676 C.ar    1  UNL1        0.0466
      8 N         140.7932  138.7838  161.4250 N.pl3   1  UNL1       -0.3061
      9 C         139.5413  138.6604  160.6079 C.3     1  UNL1        0.0923
     10 C         139.9404  138.4383  159.1791 C.3     1  UNL1        0.0391
     11 C         141.4389  138.4243  159.1132 C.3     1  UNL1        0.0790
     12 C         141.9659  138.6378  160.5012 C.3     1  UNL1        0.1067
     13 N         142.2653  138.2307  157.8764 N.3     1  UNL1       -0.2736
     14 C         142.5689  136.9190  157.2153 C.3     1  UNL1        0.0721
     15 C         143.4243  137.1925  156.0139 C.3     1  UNL1        0.0187
     16 C         143.6494  138.6732  155.9325 C.3     1  UNL1        0.0174
     17 C         142.9331  139.3149  157.0836 C.3     1  UNL1        0.0576
     18 C         142.8918  140.7830  157.3885 C.3     1  UNL1        0.0173
     19 N         141.0623  139.7001  167.3485 N.am    1  UNL1       -0.2805
     20 C         140.9447  141.0907  167.8984 C.2     1  UNL1        0.2535
     21 O         140.7598  142.2522  166.9675 O.2     1  UNL1       -0.2697
     22 H         141.1837  138.9378  167.9595 H       1  UNL1        0.1552
     23 C         141.0120  141.3198  169.3794 C.ar    1  UNL1        0.1032
     24 C         142.1616  141.9290  170.1259 C.ar    1  UNL1        0.1050
     25 C         143.4456  142.4160  169.5227 C.3     1  UNL1        0.0558
     26 N         141.8016  141.9656  171.5816 N.ar    1  UNL1       -0.0816
     27 O         140.4295  141.3790  171.7348 O.2     1  UNL1       -0.3579
     28 C         139.9415  140.9798  170.3736 C.ar    1  UNL1        0.1588
     29 C         138.6159  140.3512  170.0616 C.3     1  UNL1        0.0755
@<TRIPOS>BOND
     1     1     2    1
     2     2     3   ar
     3     3     4   ar
     4     4     8    1
     5     8     9    1
     6     9    10    1
     7    10    11    1
     8    11    13    1
     9    13    14    1
    10    14    15    1
    11    15    16    1
    12    16    17    1
    13    17    18    1
    14    11    12    1
    15     4     5   ar
    16     5     6   ar
    17     6     7   ar
    18     7    19    1
    19    19    20   am
    20    20    21    2
    21    20    23    1
    22    23    24   ar
    23    24    25    1
    24    24    26   ar
    25    26    27   ar
    26    27    28   ar
    27    28    29    1
    28     7     2   ar
    29    28    23   ar
    30    12     8    1
    31    17    13    1
    32    19    22    1
@<TRIPOS>MOLECULE
*****
 29 32 0 0 0
SMALL
GASTEIGER

@<TRIPOS>ATOM
      1 C         138.4365  139.2739  166.1006 C.3     1  UNL1        0.0324
      2 C         139.6904  139.2718  165.2773 C.ar    1  UNL1       -0.0071
      3 C         139.6157  139.0374  163.7977 C.ar    1  UNL1        0.0115
      4 C         140.8696  139.0353  162.9744 C.ar    1  UNL1        0.0476
      5 C         142.1981  139.2675  163.6308 C.ar    1  UNL1        0.0158
      6 C         142.2729  139.5019  165.1104 C.ar    1  UNL1        0.0156
      7 C         141.0190  139.5040  165.9337 C.ar    1  UNL1        0.0466
      8 N         140.7948  138.8009  161.4947 N.pl3   1  UNL1       -0.3061
      9 C         139.5395  138.6350  160.6906 C.3     1  UNL1        0.0923
     10 C         139.9311  138.4229  159.2582 C.3     1  UNL1        0.0391
     11 C         141.4285  138.4578  159.1770 C.3     1  UNL1        0.0790
     12 C         141.9623  138.6914  160.5592 C.3     1  UNL1        0.1067
     13 N         142.2482  138.2887  157.9323 N.3     1  UNL1       -0.2736
     14 C         142.5093  136.9961  157.2174 C.3     1  UNL1        0.0721
     15 C         143.3732  137.2910  156.0271 C.3     1  UNL1        0.0187
     16 C         143.6459  138.7659  156.0064 C.3     1  UNL1        0.0174
     17 C         142.9506  139.3825  157.1838 C.3     1  UNL1        0.0576
     18 C         142.9566  140.8374  157.5487 C.3     1  UNL1        0.0173
     19 N         141.0938  139.7384  167.4135 N.am    1  UNL1       -0.2805
     20 C         141.0028  141.1333  167.9574 C.2     1  UNL1        0.2535
     21 O         140.8371  142.2939  167.0217 O.2     1  UNL1       -0.2697
     22 H         141.2025  138.9766  168.0276 H       1  UNL1        0.1552
     23 C         141.0776  141.3676  169.4372 C.ar    1  UNL1        0.1032
     24 C         140.0098  141.0368  170.4373 C.ar    1  UNL1        0.1050
     25 C         138.6797  140.4135  170.1333 C.3     1  UNL1        0.0558
     26 N         140.5055  141.4387  171.7948 N.ar    1  UNL1       -0.0816
     27 O         141.8798  142.0179  171.6336 O.2     1  UNL1       -0.3579
     28 C         142.2334  141.9740  170.1764 C.ar    1  UNL1        0.1588
     29 C         143.5172  142.4524  169.5659 C.3     1  UNL1        0.0755
@<TRIPOS>BOND
     1     1     2    1
     2     2     3   ar
     3     3     4   ar
     4     4     8    1
     5     8     9    1
     6     9    10    1
     7    10    11    1
     8    11    13    1
     9    13    14    1
    10    14    15    1
    11    15    16    1
    12    16    17    1
    13    17    18    1
    14    11    12    1
    15     4     5   ar
    16     5     6   ar
    17     6     7   ar
    18     7    19    1
    19    19    20   am
    20    20    21    2
    21    20    23    1
    22    23    24   ar
    23    24    25    1
    24    24    26   ar
    25    26    27   ar
    26    27    28   ar
    27    28    29    1
    28     7     2   ar
    29    28    23   ar
    30    12     8    1
    31    17    13    1
    32    19    22    1
@<TRIPOS>MOLECULE
*****
 29 32 0 0 0
SMALL
GASTEIGER

@<TRIPOS>ATOM
      1 C         139.6481  143.8472  165.3788 C.3     1  UNL1        0.0324
      2 C         140.7232  143.0076  164.7549 C.ar    1  UNL1       -0.0071
      3 C         141.1228  143.2400  163.3279 C.ar    1  UNL1        0.0115
      4 C         142.1979  142.4005  162.7040 C.ar    1  UNL1        0.0476
      5 C         142.8734  141.3286  163.5069 C.ar    1  UNL1        0.0158
      6 C         142.4737  141.0963  164.9339 C.ar    1  UNL1        0.0156
      7 C         141.3986  141.9358  165.5579 C.ar    1  UNL1        0.0466
      8 N         142.5976  142.6328  161.2769 N.pl3   1  UNL1       -0.3061
      9 C         142.0794  143.7193  160.3819 C.3     1  UNL1        0.0923
     10 C         142.7472  143.5775  159.0463 C.3     1  UNL1        0.0391
     11 C         143.6781  142.4033  159.1158 C.3     1  UNL1        0.0790
     12 C         143.5856  141.8195  160.4944 C.3     1  UNL1        0.1067
     13 N         144.5485  141.9011  158.0022 N.3     1  UNL1       -0.2736
     14 C         145.8076  142.5486  157.5069 C.3     1  UNL1        0.0721
     15 C         146.3500  141.7110  156.3870 C.3     1  UNL1        0.0187
     16 C         145.4261  140.5458  156.1902 C.3     1  UNL1        0.0174
     17 C         144.3127  140.6633  157.1885 C.3     1  UNL1        0.0576
     18 C         143.1650  139.7103  157.3454 C.3     1  UNL1        0.0173
     19 N         140.9990  141.7034  166.9849 N.am    1  UNL1       -0.2805
     20 C         141.9373  142.0711  168.0959 C.2     1  UNL1        0.2535
     21 O         143.2752  142.6711  167.7800 O.2     1  UNL1       -0.2697
     22 H         140.1208  141.3096  167.1923 H       1  UNL1        0.1552
     23 C         141.5376  141.8387  169.5229 C.ar    1  UNL1        0.1032
     24 C         140.8237  142.8160  170.4090 C.ar    1  UNL1        0.1050
     25 C         140.3841  144.1973  170.0235 C.3     1  UNL1        0.0558
     26 N         140.6266  142.1695  171.7480 N.ar    1  UNL1       -0.0816
     27 O         141.2187  140.7925  171.6896 O.2     1  UNL1       -0.3579
     28 C         141.7818  140.5880  170.3144 C.ar    1  UNL1        0.1588
     29 C         142.4684  139.3503  169.8178 C.3     1  UNL1        0.0755
@<TRIPOS>BOND
     1     1     2    1
     2     2     3   ar
     3     3     4   ar
     4     4     8    1
     5     8     9    1
     6     9    10    1
     7    10    11    1
     8    11    13    1
     9    13    14    1
    10    14    15    1
    11    15    16    1
    12    16    17    1
    13    17    18    1
    14    11    12    1
    15     4     5   ar
    16     5     6   ar
    17     6     7   ar
    18     7    19    1
    19    19    20   am
    20    20    21    2
    21    20    23    1
    22    23    24   ar
    23    24    25    1
    24    24    26   ar
    25    26    27   ar
    26    27    28   ar
    27    28    29    1
    28     7     2   ar
    29    28    23   ar
    30    12     8    1
    31    17    13    1
    32    19    22    1
@<TRIPOS>MOLECULE
*****
 29 32 0 0 0
SMALL
GASTEIGER

@<TRIPOS>ATOM
      1 C         143.6919  142.3281  165.6761 C.3     1  UNL1        0.0324
      2 C         143.1935  141.0278  165.1184 C.ar    1  UNL1       -0.0071
      3 C         143.2936  140.7554  163.6468 C.ar    1  UNL1        0.0115
      4 C         142.7952  139.4551  163.0891 C.ar    1  UNL1        0.0476
      5 C         142.1968  138.4273  164.0031 C.ar    1  UNL1        0.0158
      6 C         142.0967  138.6997  165.4747 C.ar    1  UNL1        0.0156
      7 C         142.5951  140.0000  166.0324 C.ar    1  UNL1        0.0466
      8 N         142.8953  139.1828  161.6174 N.pl3   1  UNL1       -0.3061
      9 C         142.7980  137.8375  160.9611 C.3     1  UNL1        0.0923
     10 C         142.9528  138.0312  159.4818 C.3     1  UNL1        0.0391
     11 C         143.1458  139.4962  159.2238 C.3     1  UNL1        0.0790
     12 C         143.1103  140.2079  160.5437 C.3     1  UNL1        0.1067
     13 N         143.3403  140.1369  157.8815 N.3     1  UNL1       -0.2736
     14 C         144.6346  140.6610  157.3339 C.3     1  UNL1        0.0721
     15 C         144.3688  141.2141  155.9652 C.3     1  UNL1        0.0187
     16 C         142.9101  141.0318  155.6669 C.3     1  UNL1        0.0174
     17 C         142.2744  140.3661  156.8513 C.3     1  UNL1        0.0576
     18 C         140.8270  139.9948  156.9824 C.3     1  UNL1        0.0173
     19 N         142.4950  140.2724  167.5041 N.am    1  UNL1       -0.2805
     20 C         141.3731  141.1137  168.0365 C.2     1  UNL1        0.2535
     21 O         140.3512  141.6826  167.0973 O.2     1  UNL1       -0.2697
     22 H         143.1657  139.8990  168.1206 H       1  UNL1        0.1552
     23 C         141.2730  141.3861  169.5082 C.ar    1  UNL1        0.1032
     24 C         142.3172  142.0518  170.3547 C.ar    1  UNL1        0.1050
     25 C         143.6447  142.5619  169.8781 C.3     1  UNL1        0.0558
     26 N         141.8006  142.1177  171.7614 N.ar    1  UNL1       -0.0816
     27 O         140.4372  141.4927  171.7844 O.2     1  UNL1       -0.3579
     28 C         140.1111  141.0405  170.3917 C.ar    1  UNL1        0.1588
     29 C         138.8453  140.3620  169.9588 C.3     1  UNL1        0.0755
@<TRIPOS>BOND
     1     1     2    1
     2     2     3   ar
     3     3     4   ar
     4     4     8    1
     5     8     9    1
     6     9    10    1
     7    10    11    1
     8    11    13    1
     9    13    14    1
    10    14    15    1
    11    15    16    1
    12    16    17    1
    13    17    18    1
    14    11    12    1
    15     4     5   ar
    16     5     6   ar
    17     6     7   ar
    18     7    19    1
    19    19    20   am
    20    20    21    2
    21    20    23    1
    22    23    24   ar
    23    24    25    1
    24    24    26   ar
    25    26    27   ar
    26    27    28   ar
    27    28    29    1
    28     7     2   ar
    29    28    23   ar
    30    12     8    1
    31    17    13    1
    32    19    22    1
@<TRIPOS>MOLECULE
*****
 29 32 0 0 0
SMALL
GASTEIGER

@<TRIPOS>ATOM
      1 C         143.4122  142.5994  165.5568 C.3     1  UNL1        0.0324
      2 C         142.0738  142.6739  164.8838 C.ar    1  UNL1       -0.0071
      3 C         141.9884  142.7183  163.3870 C.ar    1  UNL1        0.0115
      4 C         140.6499  142.7927  162.7139 C.ar    1  UNL1        0.0476
      5 C         139.3968  142.8227  163.5378 C.ar    1  UNL1        0.0158
      6 C         139.4822  142.7783  165.0347 C.ar    1  UNL1        0.0156
      7 C         140.8207  142.7039  165.7077 C.ar    1  UNL1        0.0466
      8 N         140.5646  142.8371  161.2170 N.pl3   1  UNL1       -0.3061
      9 C         140.7589  141.6756  160.2879 C.3     1  UNL1        0.0923
     10 C         140.5844  142.1715  158.8831 C.3     1  UNL1        0.0391
     11 C         140.2822  143.6396  158.9438 C.3     1  UNL1        0.0790
     12 C         140.2700  144.0509  160.3863 C.3     1  UNL1        0.1067
     13 N         140.0356  144.5384  157.7686 N.3     1  UNL1       -0.2736
     14 C         140.6655  145.8799  157.5371 C.3     1  UNL1        0.0721
     15 C         140.1350  146.4241  156.2439 C.3     1  UNL1        0.0187
     16 C         139.1772  145.4189  155.6762 C.3     1  UNL1        0.0174
     17 C         139.1158  144.2535  156.6185 C.3     1  UNL1        0.0576
     18 C         138.2812  143.0197  156.4417 C.3     1  UNL1        0.0173
     19 N         140.9060  142.6595  167.2047 N.am    1  UNL1       -0.2805
     20 C         141.0647  141.3443  167.9081 C.2     1  UNL1        0.2535
     21 O         141.1382  140.0734  167.1147 O.2     1  UNL1       -0.2697
     22 H         140.8578  143.4936  167.7254 H       1  UNL1        0.1552
     23 C         141.1501  141.2999  169.4051 C.ar    1  UNL1        0.1032
     24 C         140.0785  140.8135  170.3352 C.ar    1  UNL1        0.1050
     25 C         138.7335  140.2861  169.9318 C.3     1  UNL1        0.0558
     26 N         140.5881  140.9471  171.7397 N.ar    1  UNL1       -0.0816
     27 O         141.9747  141.5160  171.6775 O.2     1  UNL1       -0.3579
     28 C         142.3220  141.7341  170.2346 C.ar    1  UNL1        0.1588
     29 C         143.6143  142.2889  169.7129 C.3     1  UNL1        0.0755
@<TRIPOS>BOND
     1     1     2    1
     2     2     3   ar
     3     3     4   ar
     4     4     8    1
     5     8     9    1
     6     9    10    1
     7    10    11    1
     8    11    13    1
     9    13    14    1
    10    14    15    1
    11    15    16    1
    12    16    17    1
    13    17    18    1
    14    11    12    1
    15     4     5   ar
    16     5     6   ar
    17     6     7   ar
    18     7    19    1
    19    19    20   am
    20    20    21    2
    21    20    23    1
    22    23    24   ar
    23    24    25    1
    24    24    26   ar
    25    26    27   ar
    26    27    28   ar
    27    28    29    1
    28     7     2   ar
    29    28    23   ar
    30    12     8    1
    31    17    13    1
    32    19    22    1
@<TRIPOS>MOLECULE
*****
 29 32 0 0 0
SMALL
GASTEIGER

@<TRIPOS>ATOM
      1 C         143.2694  142.8436  165.6239 C.3     1  UNL1        0.0324
      2 C         141.9583  142.6978  164.9098 C.ar    1  UNL1       -0.0071
      3 C         141.9215  142.6540  163.4109 C.ar    1  UNL1        0.0115
      4 C         140.6105  142.5081  162.6969 C.ar    1  UNL1        0.0476
      5 C         139.3363  142.4061  163.4816 C.ar    1  UNL1        0.0158
      6 C         139.3731  142.4499  164.9805 C.ar    1  UNL1        0.0156
      7 C         140.6841  142.5957  165.6946 C.ar    1  UNL1        0.0466
      8 N         140.5737  142.4643  161.1979 N.pl3   1  UNL1       -0.3061
      9 C         140.9935  141.3084  160.3390 C.3     1  UNL1        0.0923
     10 C         140.7899  141.6985  158.9050 C.3     1  UNL1        0.0391
     11 C         140.2443  143.0955  158.8776 C.3     1  UNL1        0.0790
     12 C         140.1107  143.5688  160.2947 C.3     1  UNL1        0.1067
     13 N         139.8939  143.8812  157.6488 N.3     1  UNL1       -0.2736
     14 C         138.7521  143.5991  156.7179 C.3     1  UNL1        0.0721
     15 C         138.7763  144.6305  155.6290 C.3     1  UNL1        0.0187
     16 C         139.9329  145.5500  155.8871 C.3     1  UNL1        0.0174
     17 C         140.6236  145.0869  157.1354 C.3     1  UNL1        0.0576
     18 C         141.8320  145.7187  157.7606 C.3     1  UNL1        0.0173
     19 N         140.7209  142.6395  167.1936 N.am    1  UNL1       -0.2805
     20 C         141.0493  141.4003  167.9723 C.2     1  UNL1        0.2535
     21 O         141.3410  140.1173  167.2521 O.2     1  UNL1       -0.2697
     22 H         140.5295  143.4817  167.6663 H       1  UNL1        0.1552
     23 C         141.0861  141.4441  169.4712 C.ar    1  UNL1        0.1032
     24 C         142.2124  141.9705  170.3105 C.ar    1  UNL1        0.1050
     25 C         143.4995  142.5455  169.7983 C.3     1  UNL1        0.0558
     26 N         141.8254  141.8209  171.7520 N.ar    1  UNL1       -0.0816
     27 O         140.4599  141.2021  171.8036 O.2     1  UNL1       -0.3579
     28 C         140.0030  140.9692  170.3939 C.ar    1  UNL1        0.1588
     29 C         138.6931  140.3671  169.9797 C.3     1  UNL1        0.0755
@<TRIPOS>BOND
     1     1     2    1
     2     2     3   ar
     3     3     4   ar
     4     4     8    1
     5     8     9    1
     6     9    10    1
     7    10    11    1
     8    11    13    1
     9    13    14    1
    10    14    15    1
    11    15    16    1
    12    16    17    1
    13    17    18    1
    14    11    12    1
    15     4     5   ar
    16     5     6   ar
    17     6     7   ar
    18     7    19    1
    19    19    20   am
    20    20    21    2
    21    20    23    1
    22    23    24   ar
    23    24    25    1
    24    24    26   ar
    25    26    27   ar
    26    27    28   ar
    27    28    29    1
    28     7     2   ar
    29    28    23   ar
    30    12     8    1
    31    17    13    1
    32    19    22    1
