@<TRIPOS>MOLECULE
*****
 42 48 0 0 0
SMALL
GASTEIGER

@<TRIPOS>ATOM
      1 C         141.6988  141.7935  158.8514 C.3     1  UNL1        0.1558
      2 N         141.5974  140.5188  158.0673 N.3     1  UNL1       -0.2809
      3 C         142.2994  139.2840  158.5493 C.3     1  UNL1        0.1166
      4 C         143.1028  139.3239  159.8154 C.3     1  UNL1        0.0511
      5 C         143.2042  140.5986  160.5995 C.2     1  UNL1       -0.0037
      6 C         142.5022  141.8334  160.1175 C.2     1  UNL1        0.0784
      7 N         142.7821  142.9368  161.0942 N.2     1  UNL1       -0.2519
      8 C         143.6571  142.3840  162.1800 C.2     1  UNL1        0.0627
      9 C         144.2500  143.0097  163.4075 C.3     1  UNL1        0.0717
     10 C         145.1037  142.1903  164.3292 C.2     1  UNL1       -0.0198
     11 C         145.3646  140.7452  164.0234 C.2     1  UNL1       -0.0042
     12 C         144.7717  140.1194  162.7959 C.2     1  UNL1        0.0006
     13 C         143.9179  140.9388  161.8742 C.2     1  UNL1        0.0111
     14 H         141.9584  140.7175  157.1343 H       1  UNL1        0.1245
     15 C         137.4613  143.1882  156.0266 C.3     1  UNL1        0.1537
     16 N         138.8775  142.8927  156.4229 N.ar    1  UNL1       -0.2476
     17 C         139.3352  142.4175  157.7700 C.ar    1  UNL1        0.0944
     18 C         140.8253  142.2516  157.7213 C.ar    1  UNL1        0.0423
     19 C         141.2884  142.6243  156.3441 C.ar    1  UNL1        0.1194
     20 N         140.0846  143.0205  155.5416 N.ar    1  UNL1       -0.1679
     21 C         142.1980  138.0092  157.7653 C.ar    1  UNL1        0.1319
     22 N         143.1181  136.8299  157.8771 N.ar    1  UNL1       -0.2282
     23 C         142.6475  135.7817  156.9127 C.ar    1  UNL1        0.1171
     24 C         141.4365  136.3133  156.2049 C.ar    1  UNL1        0.0942
     25 N         141.1587  137.6900  156.7318 N.ar    1  UNL1       -0.3385
     26 H         140.4234  138.2803  156.4490 H       1  UNL1        0.1672
     27 C         143.2773  134.4379  156.6945 C.ar    1  UNL1        0.1006
     28 C         143.0680  133.7132  155.3979 C.ar    1  UNL1        0.0230
     29 C         143.6978  132.3695  155.1796 C.ar    1  UNL1        0.0328
     30 C         144.5369  131.7504  156.2579 C.ar    1  UNL1        0.1592
     31 F         145.1667  130.4066  156.0397 F       1  UNL1       -0.2025
     32 C         144.7461  132.4751  157.5544 C.ar    1  UNL1        0.1284
     33 N         144.1164  133.8189  157.7727 N.ar    1  UNL1       -0.2399
     34 C         141.4968  143.2274  159.2430 C.ar    1  UNL1        0.2023
     35 N         142.3016  144.3959  158.7566 N.ar    1  UNL1       -0.0585
     36 O         141.7567  145.6351  159.4029 O.2     1  UNL1       -0.3358
     37 C         140.6152  145.2323  160.2887 C.ar    1  UNL1        0.2522
     38 N         140.4546  143.7442  160.1899 N.ar    1  UNL1       -0.1917
     39 C         139.7808  146.1556  161.1262 C.3     1  UNL1        0.1545
     40 N         140.3125  146.6713  162.4305 N.3     1  UNL1       -0.3134
     41 H         140.4184  145.8961  163.0849 H       1  UNL1        0.1193
     42 H         139.6616  147.3554  162.8163 H       1  UNL1        0.1193
@<TRIPOS>BOND
     1    15    16    1
     2    16    17   ar
     3    17    18   ar
     4     1    18    1
     5     1    34    1
     6    34    35   ar
     7    35    36   ar
     8    36    37   ar
     9    37    39    1
    10    39    40    1
    11    37    38   ar
    12     1     2    1
    13     2     3    1
    14     3    21    1
    15    21    22   ar
    16    22    23   ar
    17    23    27    1
    18    27    28   ar
    19    28    29   ar
    20    29    30   ar
    21    30    31    1
    22    30    32   ar
    23    32    33   ar
    24    23    24   ar
    25    24    25   ar
    26     3     4    1
    27     4     5    1
    28     5     6    2
    29     6     7    1
    30     7     8    2
    31     8     9    1
    32     9    10    1
    33    10    11    2
    34    11    12    1
    35    12    13    2
    36    18    19   ar
    37    19    20   ar
    38    20    16   ar
    39     6     1    1
    40    13     8    1
    41    38    34   ar
    42    25    21   ar
    43    13     5    1
    44    33    27   ar
    45    40    41    1
    46    40    42    1
    47     2    14    1
    48    25    26    1
@<TRIPOS>MOLECULE
*****
 42 48 0 0 0
SMALL
GASTEIGER

@<TRIPOS>ATOM
      1 C         140.7396  141.0294  159.9121 C.3     1  UNL1        0.1558
      2 N         141.0886  139.9563  158.9239 N.3     1  UNL1       -0.2809
      3 C         142.4180  139.2662  159.0044 C.3     1  UNL1        0.1166
      4 C         143.3983  139.6492  160.0732 C.3     1  UNL1        0.0511
      5 C         143.0493  140.7224  161.0614 C.2     1  UNL1       -0.0037
      6 C         141.7200  141.4125  160.9808 C.2     1  UNL1        0.0784
      7 N         141.6559  142.4253  162.0854 N.2     1  UNL1       -0.2519
      8 C         142.9456  142.3612  162.8486 C.2     1  UNL1        0.0627
      9 C         143.4471  143.1252  164.0380 C.3     1  UNL1        0.0717
     10 C         144.8097  142.8367  164.5946 C.2     1  UNL1       -0.0198
     11 C         145.6710  141.7842  163.9617 C.2     1  UNL1       -0.0042
     12 C         145.1695  141.0202  162.7722 C.2     1  UNL1        0.0006
     13 C         143.8068  141.3087  162.2157 C.2     1  UNL1        0.0111
     14 H         141.0321  140.3794  157.9975 H       1  UNL1        0.1245
     15 C         137.0852  142.2823  156.3125 C.3     1  UNL1        0.1537
     16 N         137.8072  141.5935  157.4326 N.ar    1  UNL1       -0.2476
     17 C         139.1519  141.9718  157.9792 C.ar    1  UNL1        0.0944
     18 C         139.4869  141.0177  159.0871 C.ar    1  UNL1        0.0423
     19 C         138.3493  140.0497  159.2251 C.ar    1  UNL1        0.1194
     20 N         137.3112  140.4056  158.2025 N.ar    1  UNL1       -0.1679
     21 C         142.7670  138.1930  158.0162 C.ar    1  UNL1        0.1319
     22 N         142.5051  136.7251  158.1796 N.ar    1  UNL1       -0.2282
     23 C         143.0155  136.0242  156.9556 C.ar    1  UNL1        0.1171
     24 C         143.5928  137.0589  156.0357 C.ar    1  UNL1        0.0942
     25 N         143.4392  138.3993  156.6913 N.ar    1  UNL1       -0.3385
     26 H         143.7288  139.2628  156.3175 H       1  UNL1        0.1672
     27 C         142.9585  134.5477  156.6968 C.ar    1  UNL1        0.1006
     28 C         141.9612  133.9951  155.7222 C.ar    1  UNL1        0.0230
     29 C         141.9041  132.5187  155.4634 C.ar    1  UNL1        0.0328
     30 C         142.8444  131.5950  156.1793 C.ar    1  UNL1        0.1592
     31 F         142.7875  130.1185  155.9205 F       1  UNL1       -0.2025
     32 C         143.8418  132.1476  157.1539 C.ar    1  UNL1        0.1284
     33 N         143.8988  133.6240  157.4127 N.ar    1  UNL1       -0.2399
     34 C         139.9555  142.0986  160.6138 C.ar    1  UNL1        0.2023
     35 N         139.9256  143.5531  160.2490 N.ar    1  UNL1       -0.0585
     36 O         139.0153  144.2542  161.2133 O.2     1  UNL1       -0.3358
     37 C         138.4827  143.2329  162.1741 C.ar    1  UNL1        0.2522
     38 N         139.0638  141.9006  161.8036 N.ar    1  UNL1       -0.1917
     39 C         137.5353  143.4974  163.3066 C.3     1  UNL1        0.1545
     40 N         137.3514  142.4719  164.3857 N.3     1  UNL1       -0.3134
     41 H         136.9172  141.6375  163.9912 H       1  UNL1        0.1193
     42 H         136.7526  142.8529  165.1183 H       1  UNL1        0.1193
@<TRIPOS>BOND
     1    15    16    1
     2    16    17   ar
     3    17    18   ar
     4     1    18    1
     5     1    34    1
     6    34    35   ar
     7    35    36   ar
     8    36    37   ar
     9    37    39    1
    10    39    40    1
    11    37    38   ar
    12     1     2    1
    13     2     3    1
    14     3    21    1
    15    21    22   ar
    16    22    23   ar
    17    23    27    1
    18    27    28   ar
    19    28    29   ar
    20    29    30   ar
    21    30    31    1
    22    30    32   ar
    23    32    33   ar
    24    23    24   ar
    25    24    25   ar
    26     3     4    1
    27     4     5    1
    28     5     6    2
    29     6     7    1
    30     7     8    2
    31     8     9    1
    32     9    10    1
    33    10    11    2
    34    11    12    1
    35    12    13    2
    36    18    19   ar
    37    19    20   ar
    38    20    16   ar
    39     6     1    1
    40    13     8    1
    41    38    34   ar
    42    25    21   ar
    43    13     5    1
    44    33    27   ar
    45    40    41    1
    46    40    42    1
    47     2    14    1
    48    25    26    1
@<TRIPOS>MOLECULE
*****
 42 48 0 0 0
SMALL
GASTEIGER

@<TRIPOS>ATOM
      1 C         139.6901  141.5336  159.9403 C.3     1  UNL1        0.1558
      2 N         139.7747  140.7046  158.6931 N.3     1  UNL1       -0.2809
      3 C         139.6426  139.2127  158.7738 C.3     1  UNL1        0.1166
      4 C         139.4260  138.5496  160.1018 C.3     1  UNL1        0.0511
      5 C         139.3414  139.3786  161.3490 C.2     1  UNL1       -0.0037
      6 C         139.4734  140.8706  161.2683 C.2     1  UNL1        0.0784
      7 N         139.3488  141.4227  162.6574 N.2     1  UNL1       -0.2519
      8 C         139.1398  140.2720  163.5966 C.2     1  UNL1        0.0627
      9 C         138.9530  140.2114  165.0837 C.3     1  UNL1        0.0717
     10 C         138.7616  138.8873  165.7621 C.2     1  UNL1       -0.0198
     11 C         138.7570  137.6240  164.9535 C.2     1  UNL1       -0.0042
     12 C         138.9438  137.6846  163.4664 C.2     1  UNL1        0.0006
     13 C         139.1352  139.0086  162.7880 C.2     1  UNL1        0.0111
     14 H         140.6837  140.8975  158.2725 H       1  UNL1        0.1245
     15 C         141.9287  145.3612  157.0735 C.3     1  UNL1        0.1537
     16 N         140.9319  144.3743  157.6051 N.ar    1  UNL1       -0.2476
     17 C         141.1630  143.4048  158.7261 C.ar    1  UNL1        0.0944
     18 C         139.9030  142.6149  158.9229 C.ar    1  UNL1        0.0423
     19 C         138.8933  143.0964  157.9234 C.ar    1  UNL1        0.1194
     20 N         139.5293  144.1837  157.1090 N.ar    1  UNL1       -0.1679
     21 C         139.7272  138.3836  157.5265 C.ar    1  UNL1        0.1319
     22 N         140.6768  137.2478  157.2857 N.ar    1  UNL1       -0.2282
     23 C         140.4136  136.7070  155.9115 C.ar    1  UNL1        0.1171
     24 C         139.3013  137.5087  155.3031 C.ar    1  UNL1        0.0942
     25 N         138.8771  138.5449  156.3013 N.ar    1  UNL1       -0.3385
     26 H         138.1657  139.2135  156.1745 H       1  UNL1        0.1672
     27 C         141.1359  135.5651  155.2601 C.ar    1  UNL1        0.1006
     28 C         141.0172  135.3489  153.7805 C.ar    1  UNL1        0.0230
     29 C         141.7394  134.2070  153.1290 C.ar    1  UNL1        0.0328
     30 C         142.5803  133.2813  153.9572 C.ar    1  UNL1        0.1592
     31 F         143.3026  132.1393  153.3057 F       1  UNL1       -0.2025
     32 C         142.6990  133.4975  155.4368 C.ar    1  UNL1        0.1284
     33 N         141.9768  134.6394  156.0882 N.ar    1  UNL1       -0.2399
     34 C         139.6794  142.7381  160.8343 C.ar    1  UNL1        0.2023
     35 N         138.4943  143.6108  161.1237 N.ar    1  UNL1       -0.0585
     36 O         138.9346  144.6934  162.0641 O.2     1  UNL1       -0.3358
     37 C         140.3917  144.4898  162.3557 C.ar    1  UNL1        0.2522
     38 N         140.8521  143.2813  161.5957 N.ar    1  UNL1       -0.1917
     39 C         141.2397  145.3445  163.2504 C.3     1  UNL1        0.1545
     40 N         142.7216  145.4203  163.0309 N.3     1  UNL1       -0.3134
     41 H         143.1401  144.5092  163.2185 H       1  UNL1        0.1193
     42 H         143.1234  146.1151  163.6603 H       1  UNL1        0.1193
@<TRIPOS>BOND
     1    15    16    1
     2    16    17   ar
     3    17    18   ar
     4     1    18    1
     5     1    34    1
     6    34    35   ar
     7    35    36   ar
     8    36    37   ar
     9    37    39    1
    10    39    40    1
    11    37    38   ar
    12     1     2    1
    13     2     3    1
    14     3    21    1
    15    21    22   ar
    16    22    23   ar
    17    23    27    1
    18    27    28   ar
    19    28    29   ar
    20    29    30   ar
    21    30    31    1
    22    30    32   ar
    23    32    33   ar
    24    23    24   ar
    25    24    25   ar
    26     3     4    1
    27     4     5    1
    28     5     6    2
    29     6     7    1
    30     7     8    2
    31     8     9    1
    32     9    10    1
    33    10    11    2
    34    11    12    1
    35    12    13    2
    36    18    19   ar
    37    19    20   ar
    38    20    16   ar
    39     6     1    1
    40    13     8    1
    41    38    34   ar
    42    25    21   ar
    43    13     5    1
    44    33    27   ar
    45    40    41    1
    46    40    42    1
    47     2    14    1
    48    25    26    1
@<TRIPOS>MOLECULE
*****
 42 48 0 0 0
SMALL
GASTEIGER

@<TRIPOS>ATOM
      1 C         142.3670  141.7018  160.0814 C.3     1  UNL1        0.1558
      2 N         142.5162  140.6971  158.9777 N.3     1  UNL1       -0.2809
      3 C         142.7919  139.2593  159.3045 C.3     1  UNL1        0.1166
      4 C         142.9184  138.8263  160.7351 C.3     1  UNL1        0.0511
      5 C         142.7691  139.8310  161.8388 C.2     1  UNL1       -0.0037
      6 C         142.4934  141.2688  161.5120 C.2     1  UNL1        0.0784
      7 N         142.3957  142.0269  162.8025 N.2     1  UNL1       -0.2519
      8 C         142.6111  141.0578  163.9270 C.2     1  UNL1        0.0627
      9 C         142.6268  141.2358  165.4163 C.3     1  UNL1        0.0717
     10 C         142.8733  140.0565  166.3099 C.2     1  UNL1       -0.0198
     11 C         143.1041  138.6994  165.7143 C.2     1  UNL1       -0.0042
     12 C         143.0884  138.5214  164.2250 C.2     1  UNL1        0.0006
     13 C         142.8418  139.7006  163.3314 C.2     1  UNL1        0.0111
     14 H         143.2852  141.0180  158.3893 H       1  UNL1        0.1245
     15 C         140.1498  144.1514  155.9626 C.3     1  UNL1        0.1537
     16 N         141.1452  143.7170  156.9973 N.ar    1  UNL1       -0.2476
     17 C         140.9009  142.7214  158.0924 C.ar    1  UNL1        0.0944
     18 C         142.1642  142.5910  158.8906 C.ar    1  UNL1        0.0423
     19 C         143.1892  143.5061  158.2888 C.ar    1  UNL1        0.1194
     20 N         142.5594  144.2020  157.1187 N.ar    1  UNL1       -0.1679
     21 C         142.9412  138.2545  158.2007 C.ar    1  UNL1        0.1319
     22 N         142.5525  136.8073  158.2675 N.ar    1  UNL1       -0.2282
     23 C         142.8764  136.1789  156.9445 C.ar    1  UNL1        0.1171
     24 C         143.4652  137.2378  156.0602 C.ar    1  UNL1        0.0942
     25 N         143.5052  138.5206  156.8366 N.ar    1  UNL1       -0.3385
     26 H         143.8425  139.3853  156.5084 H       1  UNL1        0.1672
     27 C         142.6510  134.7436  156.5714 C.ar    1  UNL1        0.1006
     28 C         141.7105  134.3976  155.4553 C.ar    1  UNL1        0.0230
     29 C         141.4851  132.9624  155.0822 C.ar    1  UNL1        0.0328
     30 C         142.2002  131.8731  155.8252 C.ar    1  UNL1        0.1592
     31 F         141.9748  130.4378  155.4522 F       1  UNL1       -0.2025
     32 C         143.1407  132.2191  156.9414 C.ar    1  UNL1        0.1284
     33 N         143.3661  133.6544  157.3145 N.ar    1  UNL1       -0.2399
     34 C         142.1473  143.0154  160.7716 C.ar    1  UNL1        0.2023
     35 N         143.2168  143.9145  161.3170 N.ar    1  UNL1       -0.0585
     36 O         142.5500  145.1152  161.9201 O.2     1  UNL1       -0.3358
     37 C         141.0683  144.9581  161.7474 C.ar    1  UNL1        0.2522
     38 N         140.8194  143.6603  161.0376 N.ar    1  UNL1       -0.1917
     39 C         140.0196  145.9284  162.2043 C.3     1  UNL1        0.1545
     40 N         139.2702  146.7514  161.1987 N.3     1  UNL1       -0.3134
     41 H         139.9132  147.3978  160.7414 H       1  UNL1        0.1193
     42 H         138.5360  147.2791  161.6707 H       1  UNL1        0.1193
@<TRIPOS>BOND
     1    15    16    1
     2    16    17   ar
     3    17    18   ar
     4     1    18    1
     5     1    34    1
     6    34    35   ar
     7    35    36   ar
     8    36    37   ar
     9    37    39    1
    10    39    40    1
    11    37    38   ar
    12     1     2    1
    13     2     3    1
    14     3    21    1
    15    21    22   ar
    16    22    23   ar
    17    23    27    1
    18    27    28   ar
    19    28    29   ar
    20    29    30   ar
    21    30    31    1
    22    30    32   ar
    23    32    33   ar
    24    23    24   ar
    25    24    25   ar
    26     3     4    1
    27     4     5    1
    28     5     6    2
    29     6     7    1
    30     7     8    2
    31     8     9    1
    32     9    10    1
    33    10    11    2
    34    11    12    1
    35    12    13    2
    36    18    19   ar
    37    19    20   ar
    38    20    16   ar
    39     6     1    1
    40    13     8    1
    41    38    34   ar
    42    25    21   ar
    43    13     5    1
    44    33    27   ar
    45    40    41    1
    46    40    42    1
    47     2    14    1
    48    25    26    1
@<TRIPOS>MOLECULE
*****
 42 48 0 0 0
SMALL
GASTEIGER

@<TRIPOS>ATOM
      1 C         142.2553  142.7427  159.7287 C.3     1  UNL1        0.1558
      2 N         141.7124  143.4619  158.5295 N.3     1  UNL1       -0.2809
      3 C         140.5739  144.4261  158.6850 C.3     1  UNL1        0.1166
      4 C         139.9783  144.6710  160.0398 C.3     1  UNL1        0.0511
      5 C         140.5211  143.9518  161.2389 C.2     1  UNL1       -0.0037
      6 C         141.6596  142.9877  161.0834 C.2     1  UNL1        0.0784
      7 N         141.9824  142.4293  162.4377 N.2     1  UNL1       -0.2519
      8 C         141.0434  143.0484  163.4302 C.2     1  UNL1        0.0627
      9 C         140.8941  142.8769  164.9128 C.3     1  UNL1        0.0717
     10 C         139.8416  143.6464  165.6546 C.2     1  UNL1       -0.0198
     11 C         138.9385  144.5873  164.9137 C.2     1  UNL1       -0.0042
     12 C         139.0878  144.7589  163.4310 C.2     1  UNL1        0.0006
     13 C         140.1403  143.9894  162.6893 C.2     1  UNL1        0.0111
     14 H         141.4043  142.7461  157.8714 H       1  UNL1        0.1245
     15 C         146.3528  142.0084  156.4803 C.3     1  UNL1        0.1537
     16 N         145.0304  141.8425  157.1687 N.ar    1  UNL1       -0.2476
     17 C         144.4983  142.7042  158.2753 C.ar    1  UNL1        0.0944
     18 C         143.1470  142.1801  158.6619 C.ar    1  UNL1        0.0423
     19 C         142.8440  140.9945  157.7942 C.ar    1  UNL1        0.1194
     20 N         144.0081  140.7859  156.8714 N.ar    1  UNL1       -0.1679
     21 C         140.0310  145.1453  157.4858 C.ar    1  UNL1        0.1319
     22 N         140.1827  146.6084  157.1919 N.ar    1  UNL1       -0.2282
     23 C         139.4866  146.8951  155.8945 C.ar    1  UNL1        0.1171
     24 C         138.9048  145.6092  155.3866 C.ar    1  UNL1        0.0942
     25 N         139.2413  144.5278  156.3701 N.ar    1  UNL1       -0.3385
     26 H         138.9883  143.5792  156.2962 H       1  UNL1        0.1672
     27 C         139.3894  148.2329  155.2229 C.ar    1  UNL1        0.1006
     28 C         139.9690  148.4284  153.8533 C.ar    1  UNL1        0.0230
     29 C         139.8718  149.7660  153.1817 C.ar    1  UNL1        0.0328
     30 C         139.1950  150.9083  153.8797 C.ar    1  UNL1        0.1592
     31 F         139.0978  152.2460  153.2082 F       1  UNL1       -0.2025
     32 C         138.6155  150.7128  155.2494 C.ar    1  UNL1        0.1284
     33 N         138.7126  149.3751  155.9210 N.ar    1  UNL1       -0.2399
     34 C         143.1078  141.8281  160.5574 C.ar    1  UNL1        0.2023
     35 N         144.3734  142.2059  161.2683 N.ar    1  UNL1       -0.0585
     36 O         144.8921  140.9863  161.9710 O.2     1  UNL1       -0.3358
     37 C         143.9470  139.8549  161.6944 C.ar    1  UNL1        0.2522
     38 N         142.8442  140.3751  160.8207 N.ar    1  UNL1       -0.1917
     39 C         144.0812  138.4498  162.2022 C.3     1  UNL1        0.1545
     40 N         143.7911  137.2927  161.2928 N.3     1  UNL1       -0.3134
     41 H         142.8007  137.2922  161.0487 H       1  UNL1        0.1193
     42 H         144.0248  136.4206  161.7672 H       1  UNL1        0.1193
@<TRIPOS>BOND
     1    15    16    1
     2    16    17   ar
     3    17    18   ar
     4     1    18    1
     5     1    34    1
     6    34    35   ar
     7    35    36   ar
     8    36    37   ar
     9    37    39    1
    10    39    40    1
    11    37    38   ar
    12     1     2    1
    13     2     3    1
    14     3    21    1
    15    21    22   ar
    16    22    23   ar
    17    23    27    1
    18    27    28   ar
    19    28    29   ar
    20    29    30   ar
    21    30    31    1
    22    30    32   ar
    23    32    33   ar
    24    23    24   ar
    25    24    25   ar
    26     3     4    1
    27     4     5    1
    28     5     6    2
    29     6     7    1
    30     7     8    2
    31     8     9    1
    32     9    10    1
    33    10    11    2
    34    11    12    1
    35    12    13    2
    36    18    19   ar
    37    19    20   ar
    38    20    16   ar
    39     6     1    1
    40    13     8    1
    41    38    34   ar
    42    25    21   ar
    43    13     5    1
    44    33    27   ar
    45    40    41    1
    46    40    42    1
    47     2    14    1
    48    25    26    1
@<TRIPOS>MOLECULE
*****
 42 48 0 0 0
SMALL
GASTEIGER

@<TRIPOS>ATOM
      1 C         141.3266  140.2126  159.9597 C.3     1  UNL1        0.1558
      2 N         141.8411  138.9735  159.2891 N.3     1  UNL1       -0.2809
      3 C         142.4409  139.0574  157.9168 C.3     1  UNL1        0.1166
      4 C         142.5262  140.3804  157.2151 C.3     1  UNL1        0.0511
      5 C         142.0117  141.6195  157.8857 C.2     1  UNL1       -0.0037
      6 C         141.4119  141.5356  159.2580 C.2     1  UNL1        0.0784
      7 N         140.9908  142.9166  159.6650 N.2     1  UNL1       -0.2519
      8 C         141.3304  143.8540  158.5443 C.2     1  UNL1        0.0627
      9 C         141.1466  145.3339  158.3830 C.3     1  UNL1        0.0717
     10 C         141.5937  146.0121  157.1221 C.2     1  UNL1       -0.0198
     11 C         142.2247  145.2105  156.0224 C.2     1  UNL1       -0.0042
     12 C         142.4085  143.7306  156.1837 C.2     1  UNL1        0.0006
     13 C         141.9613  143.0523  157.4446 C.2     1  UNL1        0.0111
     14 H         141.0568  138.3242  159.2284 H       1  UNL1        0.1245
     15 C         141.6213  137.3178  164.3659 C.3     1  UNL1        0.1537
     16 N         141.1618  137.8669  163.0477 N.ar    1  UNL1       -0.2476
     17 C         141.8166  138.9755  162.2779 C.ar    1  UNL1        0.0944
     18 C         141.0264  139.1975  161.0224 C.ar    1  UNL1        0.0423
     19 C         139.8833  138.2263  161.0163 C.ar    1  UNL1        0.1194
     20 N         139.9670  137.4039  162.2680 N.ar    1  UNL1       -0.1679
     21 C         142.9555  137.8182  157.2461 C.ar    1  UNL1        0.1319
     22 N         142.6816  136.4064  157.6726 N.ar    1  UNL1       -0.2282
     23 C         143.3911  135.4890  156.7213 C.ar    1  UNL1        0.1171
     24 C         144.1035  136.3337  155.7069 C.ar    1  UNL1        0.0942
     25 N         143.8342  137.7733  156.0313 N.ar    1  UNL1       -0.3385
     26 H         144.1745  138.5519  155.5341 H       1  UNL1        0.1672
     27 C         143.3887  133.9899  156.7750 C.ar    1  UNL1        0.1006
     28 C         142.3409  133.2145  156.0326 C.ar    1  UNL1        0.0230
     29 C         142.3384  131.7155  156.0863 C.ar    1  UNL1        0.0328
     30 C         143.3837  130.9919  156.8823 C.ar    1  UNL1        0.1592
     31 F         143.3812  129.4928  156.9360 F       1  UNL1       -0.2025
     32 C         144.4314  131.7672  157.6247 C.ar    1  UNL1        0.1284
     33 N         144.4339  133.2662  157.5710 N.ar    1  UNL1       -0.2399
     34 C         140.7078  141.0993  160.9994 C.ar    1  UNL1        0.2023
     35 N         141.4423  142.0480  161.8995 N.ar    1  UNL1       -0.0585
     36 O         140.4342  142.7279  162.7779 O.2     1  UNL1       -0.3358
     37 C         139.0767  142.1994  162.4206 C.ar    1  UNL1        0.2522
     38 N         139.2458  141.1928  161.3214 N.ar    1  UNL1       -0.1917
     39 C         137.7781  142.6060  163.0517 C.3     1  UNL1        0.1545
     40 N         136.6976  141.5881  163.2669 N.3     1  UNL1       -0.3134
     41 H         136.3537  141.2612  162.3640 H       1  UNL1        0.1193
     42 H         135.9310  142.0113  163.7899 H       1  UNL1        0.1193
@<TRIPOS>BOND
     1    15    16    1
     2    16    17   ar
     3    17    18   ar
     4     1    18    1
     5     1    34    1
     6    34    35   ar
     7    35    36   ar
     8    36    37   ar
     9    37    39    1
    10    39    40    1
    11    37    38   ar
    12     1     2    1
    13     2     3    1
    14     3    21    1
    15    21    22   ar
    16    22    23   ar
    17    23    27    1
    18    27    28   ar
    19    28    29   ar
    20    29    30   ar
    21    30    31    1
    22    30    32   ar
    23    32    33   ar
    24    23    24   ar
    25    24    25   ar
    26     3     4    1
    27     4     5    1
    28     5     6    2
    29     6     7    1
    30     7     8    2
    31     8     9    1
    32     9    10    1
    33    10    11    2
    34    11    12    1
    35    12    13    2
    36    18    19   ar
    37    19    20   ar
    38    20    16   ar
    39     6     1    1
    40    13     8    1
    41    38    34   ar
    42    25    21   ar
    43    13     5    1
    44    33    27   ar
    45    40    41    1
    46    40    42    1
    47     2    14    1
    48    25    26    1
@<TRIPOS>MOLECULE
*****
 42 48 0 0 0
SMALL
GASTEIGER

@<TRIPOS>ATOM
      1 C         142.2308  140.9230  164.3908 C.3     1  UNL1        0.1558
      2 N         141.8742  141.9243  163.3324 N.3     1  UNL1       -0.2809
      3 C         141.1531  143.1855  163.7056 C.3     1  UNL1        0.1166
      4 C         140.7886  143.4455  165.1372 C.3     1  UNL1        0.0511
      5 C         141.1453  142.4443  166.1957 C.2     1  UNL1       -0.0037
      6 C         141.8664  141.1831  165.8225 C.2     1  UNL1        0.0784
      7 N         142.0849  140.3863  167.0744 N.2     1  UNL1       -0.2519
      8 C         141.4989  141.1552  168.2214 C.2     1  UNL1        0.0627
      9 C         141.4191  140.8614  169.6901 C.3     1  UNL1        0.0717
     10 C         140.7585  141.8395  170.6158 C.2     1  UNL1       -0.0198
     11 C         140.1777  143.1114  170.0726 C.2     1  UNL1       -0.0042
     12 C         140.2576  143.4052  168.6039 C.2     1  UNL1        0.0006
     13 C         140.9182  142.4271  167.6783 C.2     1  UNL1        0.0111
     14 H         141.2870  141.4391  162.6540 H       1  UNL1        0.1245
     15 C         142.7087  137.7529  160.1952 C.3     1  UNL1        0.1537
     16 N         143.0058  138.7748  161.2524 N.ar    1  UNL1       -0.2476
     17 C         142.0852  139.1888  162.3620 C.ar    1  UNL1        0.0944
     18 C         142.7861  140.2319  163.1809 C.ar    1  UNL1        0.0423
     19 C         144.1399  140.4626  162.5774 C.ar    1  UNL1        0.1194
     20 N         144.2756  139.5621  161.3855 N.ar    1  UNL1       -0.1679
     21 C         140.7964  144.1868  162.6471 C.ar    1  UNL1        0.1319
     22 N         141.1371  144.0882  161.1896 N.ar    1  UNL1       -0.2282
     23 C         140.5876  145.3028  160.5020 C.ar    1  UNL1        0.1171
     24 C         139.9074  146.1521  161.5345 C.ar    1  UNL1        0.0942
     25 N         140.0364  145.4623  162.8603 N.ar    1  UNL1       -0.3385
     26 H         139.6842  145.7893  163.7195 H       1  UNL1        0.1672
     27 C         140.6989  145.6137  159.0388 C.ar    1  UNL1        0.1006
     28 C         141.9317  145.2202  158.2801 C.ar    1  UNL1        0.0230
     29 C         142.0430  145.5310  156.8169 C.ar    1  UNL1        0.0328
     30 C         140.9216  146.2352  156.1124 C.ar    1  UNL1        0.1592
     31 F         141.0329  146.5461  154.6491 F       1  UNL1       -0.2025
     32 C         139.6889  146.6287  156.8710 C.ar    1  UNL1        0.1284
     33 N         139.5775  146.3180  158.3342 N.ar    1  UNL1       -0.2399
     34 C         142.7804  139.6818  165.0291 C.ar    1  UNL1        0.2023
     35 N         142.0075  138.4349  165.3417 N.ar    1  UNL1       -0.0585
     36 O         142.9488  137.4521  165.9727 O.2     1  UNL1       -0.3358
     37 C         144.3034  138.0916  166.0500 C.ar    1  UNL1        0.2522
     38 N         144.1993  139.4697  165.4668 N.ar    1  UNL1       -0.1917
     39 C         145.5442  137.4634  166.6118 C.3     1  UNL1        0.1545
     40 N         145.4353  136.3151  167.5708 N.3     1  UNL1       -0.3134
     41 H         144.9991  136.6346  168.4357 H       1  UNL1        0.1193
     42 H         146.3667  135.9520  167.7736 H       1  UNL1        0.1193
@<TRIPOS>BOND
     1    15    16    1
     2    16    17   ar
     3    17    18   ar
     4     1    18    1
     5     1    34    1
     6    34    35   ar
     7    35    36   ar
     8    36    37   ar
     9    37    39    1
    10    39    40    1
    11    37    38   ar
    12     1     2    1
    13     2     3    1
    14     3    21    1
    15    21    22   ar
    16    22    23   ar
    17    23    27    1
    18    27    28   ar
    19    28    29   ar
    20    29    30   ar
    21    30    31    1
    22    30    32   ar
    23    32    33   ar
    24    23    24   ar
    25    24    25   ar
    26     3     4    1
    27     4     5    1
    28     5     6    2
    29     6     7    1
    30     7     8    2
    31     8     9    1
    32     9    10    1
    33    10    11    2
    34    11    12    1
    35    12    13    2
    36    18    19   ar
    37    19    20   ar
    38    20    16   ar
    39     6     1    1
    40    13     8    1
    41    38    34   ar
    42    25    21   ar
    43    13     5    1
    44    33    27   ar
    45    40    41    1
    46    40    42    1
    47     2    14    1
    48    25    26    1
@<TRIPOS>MOLECULE
*****
 42 48 0 0 0
SMALL
GASTEIGER

@<TRIPOS>ATOM
      1 C         141.0936  142.5413  159.2492 C.3     1  UNL1        0.1558
      2 N         139.7914  142.2133  158.5810 N.3     1  UNL1       -0.2809
      3 C         139.7746  141.7684  157.1486 C.3     1  UNL1        0.1166
      4 C         141.0601  141.6515  156.3844 C.3     1  UNL1        0.0511
      5 C         142.3623  141.9794  157.0526 C.2     1  UNL1       -0.0037
      6 C         142.3791  142.4243  158.4850 C.2     1  UNL1        0.0784
      7 N         143.8052  142.6776  158.8750 N.2     1  UNL1       -0.2519
      8 C         144.6698  142.3893  157.6836 C.2     1  UNL1        0.0627
      9 C         146.1539  142.4640  157.4789 C.3     1  UNL1        0.0717
     10 C         146.7461  142.1071  156.1478 C.2     1  UNL1       -0.0198
     11 C         145.8544  141.6755  155.0215 C.2     1  UNL1       -0.0042
     12 C         144.3703  141.6009  155.2263 C.2     1  UNL1        0.0006
     13 C         143.7780  141.9578  156.5573 C.2     1  UNL1        0.0111
     14 H         139.2130  143.0517  158.6357 H       1  UNL1        0.1245
     15 C         137.7709  141.8143  163.2880 C.3     1  UNL1        0.1537
     16 N         138.6189  142.4697  162.2385 N.ar    1  UNL1       -0.2476
     17 C         139.4772  141.7637  161.2309 C.ar    1  UNL1        0.0944
     18 C         140.1462  142.8038  160.3821 C.ar    1  UNL1        0.0423
     19 C         139.7015  144.1525  160.8650 C.ar    1  UNL1        0.1194
     20 N         138.7576  143.9460  162.0123 N.ar    1  UNL1       -0.1679
     21 C         138.4723  141.4405  156.4802 C.ar    1  UNL1        0.1319
     22 N         137.1742  141.1504  157.1735 N.ar    1  UNL1       -0.2282
     23 C         136.1391  140.8756  156.1231 C.ar    1  UNL1        0.1171
     24 C         136.7976  140.9959  154.7808 C.ar    1  UNL1        0.0942
     25 N         138.2396  141.3450  155.0015 N.ar    1  UNL1       -0.3385
     26 H         138.9148  141.4866  154.2991 H       1  UNL1        0.1672
     27 C         134.6985  140.5396  156.3715 C.ar    1  UNL1        0.1006
     28 C         133.6280  141.1470  155.5140 C.ar    1  UNL1        0.0230
     29 C         132.1874  140.8110  155.7624 C.ar    1  UNL1        0.0328
     30 C         131.8173  139.8676  156.8683 C.ar    1  UNL1        0.1592
     31 F         130.3766  139.5316  157.1167 F       1  UNL1       -0.2025
     32 C         132.8877  139.2602  157.7257 C.ar    1  UNL1        0.1284
     33 N         134.3283  139.5962  157.4774 N.ar    1  UNL1       -0.2399
     34 C         142.0669  142.9604  160.3109 C.ar    1  UNL1        0.2023
     35 N         142.5071  144.3651  160.5985 N.ar    1  UNL1       -0.0585
     36 O         143.4831  144.3211  161.7368 O.2     1  UNL1       -0.3358
     37 C         143.6461  142.8892  162.1525 C.ar    1  UNL1        0.2522
     38 N         142.7708  142.0482  161.2713 N.ar    1  UNL1       -0.1917
     39 C         144.5293  142.3865  163.2558 C.3     1  UNL1        0.1545
     40 N         145.9025  141.8713  162.9415 N.3     1  UNL1       -0.3134
     41 H         145.8271  141.0214  162.3826 H       1  UNL1        0.1193
     42 H         146.3951  141.6643  163.8104 H       1  UNL1        0.1193
@<TRIPOS>BOND
     1    15    16    1
     2    16    17   ar
     3    17    18   ar
     4     1    18    1
     5     1    34    1
     6    34    35   ar
     7    35    36   ar
     8    36    37   ar
     9    37    39    1
    10    39    40    1
    11    37    38   ar
    12     1     2    1
    13     2     3    1
    14     3    21    1
    15    21    22   ar
    16    22    23   ar
    17    23    27    1
    18    27    28   ar
    19    28    29   ar
    20    29    30   ar
    21    30    31    1
    22    30    32   ar
    23    32    33   ar
    24    23    24   ar
    25    24    25   ar
    26     3     4    1
    27     4     5    1
    28     5     6    2
    29     6     7    1
    30     7     8    2
    31     8     9    1
    32     9    10    1
    33    10    11    2
    34    11    12    1
    35    12    13    2
    36    18    19   ar
    37    19    20   ar
    38    20    16   ar
    39     6     1    1
    40    13     8    1
    41    38    34   ar
    42    25    21   ar
    43    13     5    1
    44    33    27   ar
    45    40    41    1
    46    40    42    1
    47     2    14    1
    48    25    26    1
@<TRIPOS>MOLECULE
*****
 42 48 0 0 0
SMALL
GASTEIGER

@<TRIPOS>ATOM
      1 C         141.6220  141.2121  160.5383 C.3     1  UNL1        0.1558
      2 N         142.0615  140.2930  159.4373 N.3     1  UNL1       -0.2809
      3 C         141.8078  138.8186  159.5450 C.3     1  UNL1        0.1166
      4 C         141.1146  138.2632  160.7538 C.3     1  UNL1        0.0511
      5 C         140.6751  139.1822  161.8548 C.2     1  UNL1       -0.0037
      6 C         140.9288  140.6566  161.7470 C.2     1  UNL1        0.0784
      7 N         140.3852  141.3119  162.9820 N.2     1  UNL1       -0.2519
      8 C         139.7956  140.2424  163.8530 C.2     1  UNL1        0.0627
      9 C         139.1187  140.2971  165.1904 C.3     1  UNL1        0.0717
     10 C         138.6209  139.0355  165.8312 C.2     1  UNL1       -0.0198
     11 C         138.8001  137.7193  165.1345 C.2     1  UNL1       -0.0042
     12 C         139.4770  137.6646  163.7970 C.2     1  UNL1        0.0006
     13 C         139.9747  138.9262  163.1563 C.2     1  UNL1        0.0111
     14 H         143.0698  140.4119  159.3394 H       1  UNL1        0.1245
     15 C         142.1919  145.0076  156.9120 C.3     1  UNL1        0.1537
     16 N         142.4987  143.9512  157.9318 N.ar    1  UNL1       -0.2476
     17 C         141.4912  143.1377  158.6890 C.ar    1  UNL1        0.0944
     18 C         142.2367  142.2066  159.5987 C.ar    1  UNL1        0.0423
     19 C         143.7048  142.4448  159.4037 C.ar    1  UNL1        0.1194
     20 N         143.8667  143.5230  158.3735 N.ar    1  UNL1       -0.1679
     21 C         142.2473  137.8995  158.4440 C.ar    1  UNL1        0.1319
     22 N         142.7001  136.4791  158.6094 N.ar    1  UNL1       -0.2282
     23 C         143.0438  135.9411  157.2520 C.ar    1  UNL1        0.1171
     24 C         142.8034  137.0291  156.2477 C.ar    1  UNL1        0.0942
     25 N         142.3111  138.2394  156.9845 N.ar    1  UNL1       -0.3385
     26 H         142.0719  139.1050  156.5809 H       1  UNL1        0.1672
     27 C         143.5406  134.5580  156.9516 C.ar    1  UNL1        0.1006
     28 C         143.3281  133.9639  155.5908 C.ar    1  UNL1        0.0230
     29 C         143.8250  132.5808  155.2903 C.ar    1  UNL1        0.0328
     30 C         144.5343  131.7919  156.3507 C.ar    1  UNL1        0.1592
     31 F         145.0312  130.4088  156.0503 F       1  UNL1       -0.2025
     32 C         144.7468  132.3861  157.7115 C.ar    1  UNL1        0.1284
     33 N         144.2500  133.7691  158.0119 N.ar    1  UNL1       -0.2399
     34 C         141.3959  142.4765  161.3130 C.ar    1  UNL1        0.2023
     35 N         142.3451  143.0867  162.3012 N.ar    1  UNL1       -0.0585
     36 O         141.7167  144.3400  162.8344 O.2     1  UNL1       -0.3358
     37 C         140.3792  144.5044  162.1757 C.ar    1  UNL1        0.2522
     38 N         140.1809  143.3527  161.2354 N.ar    1  UNL1       -0.1917
     39 C         139.4101  145.6240  162.4153 C.3     1  UNL1        0.1545
     40 N         139.0703  146.5725  161.3040 N.3     1  UNL1       -0.3134
     41 H         139.8979  147.1137  161.0539 H       1  UNL1        0.1193
     42 H         138.3306  147.2044  161.6106 H       1  UNL1        0.1193
@<TRIPOS>BOND
     1    15    16    1
     2    16    17   ar
     3    17    18   ar
     4     1    18    1
     5     1    34    1
     6    34    35   ar
     7    35    36   ar
     8    36    37   ar
     9    37    39    1
    10    39    40    1
    11    37    38   ar
    12     1     2    1
    13     2     3    1
    14     3    21    1
    15    21    22   ar
    16    22    23   ar
    17    23    27    1
    18    27    28   ar
    19    28    29   ar
    20    29    30   ar
    21    30    31    1
    22    30    32   ar
    23    32    33   ar
    24    23    24   ar
    25    24    25   ar
    26     3     4    1
    27     4     5    1
    28     5     6    2
    29     6     7    1
    30     7     8    2
    31     8     9    1
    32     9    10    1
    33    10    11    2
    34    11    12    1
    35    12    13    2
    36    18    19   ar
    37    19    20   ar
    38    20    16   ar
    39     6     1    1
    40    13     8    1
    41    38    34   ar
    42    25    21   ar
    43    13     5    1
    44    33    27   ar
    45    40    41    1
    46    40    42    1
    47     2    14    1
    48    25    26    1
