@<TRIPOS>MOLECULE
*****
 33 36 0 0 0
SMALL
GASTEIGER

@<TRIPOS>ATOM
      1 N         138.3228  140.2887  159.1930 N.pl3   1  UNL1       -0.2847
      2 C         137.9779  140.7484  160.5784 C.3     1  UNL1        0.1141
      3 C         138.5967  140.0756  161.7677 C.3     1  UNL1        0.1149
      4 N         139.5604  138.9430  161.5714 N.am    1  UNL1       -0.2760
      5 C         140.1792  138.2702  162.7608 C.2     1  UNL1        0.2257
      6 O         141.1429  137.1376  162.5645 O.2     1  UNL1       -0.2749
      7 C         139.9054  138.4833  160.1860 C.3     1  UNL1        0.1149
      8 C         139.2866  139.1562  158.9967 C.3     1  UNL1        0.1141
      9 C         137.0846  143.9031  155.5482 C.3     1  UNL1        0.0398
     10 C         137.1349  142.6230  156.3283 C.ar    1  UNL1        0.0319
     11 S         137.9601  142.3699  157.5551 S.2     1  UNL1       -0.0560
     12 C         137.7040  140.9616  158.0036 C.ar    1  UNL1        0.1628
     13 N         136.7206  140.3443  157.0540 N.ar    1  UNL1       -0.2204
     14 C         136.3688  141.3710  156.0187 C.ar    1  UNL1        0.1565
     15 C         135.4179  141.1795  154.8745 C.3     1  UNL1        0.4351
     16 F         134.4671  140.9880  153.7303 F       1  UNL1       -0.1644
     17 F         134.2580  141.3127  155.8162 F       1  UNL1       -0.1644
     18 F         136.5779  141.0464  153.9328 F       1  UNL1       -0.1644
     19 C         139.8343  138.7299  164.1463 C.3     1  UNL1        0.0853
     20 C         138.7019  138.0859  164.8900 C.3     1  UNL1        0.0096
     21 C         138.3570  138.5457  166.2756 C.3     1  UNL1        0.0005
     22 C         139.1444  139.6494  166.9173 C.3     1  UNL1        0.0005
     23 C         140.2767  140.2934  166.1736 C.3     1  UNL1        0.0096
     24 C         140.6216  139.8336  164.7881 C.3     1  UNL1        0.0851
     25 C         141.7540  140.4776  164.0443 C.2     1  UNL1        0.2231
     26 O         141.4897  141.6451  163.1403 O.2     1  UNL1       -0.2751
     27 N         143.1505  139.9542  164.2046 N.am    1  UNL1       -0.2959
     28 H         143.3239  139.1880  164.7980 H       1  UNL1        0.1502
     29 C         144.2828  140.5981  163.4609 C.3     1  UNL1        0.1364
     30 C         145.4377  141.5081  163.1645 C.3     1  UNL1        0.0353
     31 C         144.7412  141.5879  164.4905 C.3     1  UNL1        0.0353
     32 C         144.2176  139.8320  162.1730 C.1     1  UNL1        0.0896
     33 N         144.1524  139.0659  160.8851 N.1     1  UNL1       -0.1943
@<TRIPOS>BOND
     1     9    10    1
     2    10    11   ar
     3    11    12   ar
     4    12     1    1
     5     1     2    1
     6     2     3    1
     7     3     4    1
     8     4     5   am
     9     5     6    2
    10    19     5    1
    11    19    20    1
    12    20    21    1
    13    21    22    1
    14    22    23    1
    15    23    24    1
    16    24    25    1
    17    25    26    2
    18    25    27   am
    19    27    29    1
    20    29    32    1
    21    32    33    3
    22    29    30    1
    23    30    31    1
    24     4     7    1
    25     7     8    1
    26    12    13   ar
    27    13    14   ar
    28    14    15    1
    29    15    16    1
    30    15    17    1
    31    15    18    1
    32    14    10   ar
    33     8     1    1
    34    24    19    1
    35    31    29    1
    36    27    28    1
@<TRIPOS>MOLECULE
*****
 33 36 0 0 0
SMALL
GASTEIGER

@<TRIPOS>ATOM
      1 N         142.5480  138.9266  159.9046 N.pl3   1  UNL1       -0.2847
      2 C         141.5381  139.9885  160.2243 C.3     1  UNL1        0.1141
      3 C         141.7125  140.8472  161.4417 C.3     1  UNL1        0.1149
      4 N         142.8969  140.6440  162.3394 N.am    1  UNL1       -0.2760
      5 C         143.0713  141.5028  163.5569 C.2     1  UNL1        0.2257
      6 O         144.2558  141.2996  164.4546 O.2     1  UNL1       -0.2749
      7 C         143.9069  139.5821  162.0197 C.3     1  UNL1        0.1149
      8 C         143.7325  138.7234  160.8022 C.3     1  UNL1        0.1141
      9 C         140.5882  136.8491  155.4633 C.3     1  UNL1        0.0398
     10 C         141.4728  137.1129  156.6457 C.ar    1  UNL1        0.0319
     11 S         141.2478  138.1562  157.6997 S.2     1  UNL1       -0.0560
     12 C         142.3736  138.0678  158.6871 C.ar    1  UNL1        0.1628
     13 N         143.2944  136.9700  158.2432 N.ar    1  UNL1       -0.2204
     14 C         142.7376  136.3799  156.9816 C.ar    1  UNL1        0.1565
     15 C         143.3400  135.2542  156.1941 C.3     1  UNL1        0.4351
     16 F         143.9423  134.1286  155.4066 F       1  UNL1       -0.1644
     17 F         142.3161  134.3131  156.7561 F       1  UNL1       -0.1644
     18 F         144.3639  136.1954  155.6320 F       1  UNL1       -0.1644
     19 C         142.0613  142.5647  163.8766 C.3     1  UNL1        0.0853
     20 C         142.3133  143.9863  163.4697 C.3     1  UNL1        0.0096
     21 C         141.3032  145.0482  163.7895 C.3     1  UNL1        0.0005
     22 C         140.0413  144.6885  164.5161 C.3     1  UNL1        0.0005
     23 C         139.7893  143.2669  164.9230 C.3     1  UNL1        0.0096
     24 C         140.7993  142.2050  164.6033 C.3     1  UNL1        0.0851
     25 C         140.5473  140.7834  165.0101 C.2     1  UNL1        0.2231
     26 O         141.4079  140.1389  166.0562 O.2     1  UNL1       -0.2751
     27 N         139.4349  140.0063  164.3710 N.am    1  UNL1       -0.2959
     28 H         138.8701  140.4292  163.6845 H       1  UNL1        0.1502
     29 C         139.1829  138.5847  164.7779 C.3     1  UNL1        0.1364
     30 C         138.6235  137.4104  165.5249 C.3     1  UNL1        0.0353
     31 C         138.2101  138.8030  165.8986 C.3     1  UNL1        0.0353
     32 C         140.0682  137.8726  163.7985 C.1     1  UNL1        0.0896
     33 N         140.9535  137.1605  162.8191 N.1     1  UNL1       -0.1943
@<TRIPOS>BOND
     1     9    10    1
     2    10    11   ar
     3    11    12   ar
     4    12     1    1
     5     1     2    1
     6     2     3    1
     7     3     4    1
     8     4     5   am
     9     5     6    2
    10    19     5    1
    11    19    20    1
    12    20    21    1
    13    21    22    1
    14    22    23    1
    15    23    24    1
    16    24    25    1
    17    25    26    2
    18    25    27   am
    19    27    29    1
    20    29    32    1
    21    32    33    3
    22    29    30    1
    23    30    31    1
    24     4     7    1
    25     7     8    1
    26    12    13   ar
    27    13    14   ar
    28    14    15    1
    29    15    16    1
    30    15    17    1
    31    15    18    1
    32    14    10   ar
    33     8     1    1
    34    24    19    1
    35    31    29    1
    36    27    28    1
@<TRIPOS>MOLECULE
*****
 33 36 0 0 0
SMALL
GASTEIGER

@<TRIPOS>ATOM
      1 N         141.3479  139.3738  159.7096 N.pl3   1  UNL1       -0.2847
      2 C         142.5287  139.7827  160.5394 C.3     1  UNL1        0.1141
      3 C         142.3491  140.7437  161.6770 C.3     1  UNL1        0.1149
      4 N         140.9888  141.2958  161.9848 N.am    1  UNL1       -0.2760
      5 C         140.8093  142.2568  163.1225 C.2     1  UNL1        0.2257
      6 O         139.4489  142.8089  163.4304 O.2     1  UNL1       -0.2749
      7 C         139.8080  140.8868  161.1551 C.3     1  UNL1        0.1149
      8 C         139.9876  139.9258  160.0175 C.3     1  UNL1        0.1141
      9 C         140.4436  136.5002  155.3731 C.3     1  UNL1        0.0398
     10 C         141.1117  137.0919  156.5786 C.ar    1  UNL1        0.0319
     11 S         140.5135  138.1035  157.5107 S.2     1  UNL1       -0.0560
     12 C         141.5274  138.4127  158.5720 C.ar    1  UNL1        0.1628
     13 N         142.7523  137.5922  158.2959 N.ar    1  UNL1       -0.2204
     14 C         142.4955  136.7758  157.0640 C.ar    1  UNL1        0.1565
     15 C         143.4540  135.8126  156.4288 C.3     1  UNL1        0.4351
     16 F         144.4125  134.8493  155.7937 F       1  UNL1       -0.1644
     17 F         143.9326  136.8959  155.5082 F       1  UNL1       -0.1644
     18 F         142.9754  134.7293  157.3495 F       1  UNL1       -0.1644
     19 C         141.9900  142.6658  163.9522 C.3     1  UNL1        0.0853
     20 C         142.8831  143.7783  163.4889 C.3     1  UNL1        0.0096
     21 C         144.0639  144.1873  164.3187 C.3     1  UNL1        0.0005
     22 C         144.3516  143.4837  165.6118 C.3     1  UNL1        0.0005
     23 C         143.4585  142.3711  166.0752 C.3     1  UNL1        0.0096
     24 C         142.2778  141.9622  165.2454 C.3     1  UNL1        0.0851
     25 C         141.3847  140.8496  165.7088 C.2     1  UNL1        0.2231
     26 O         141.8867  139.4361  165.7101 O.2     1  UNL1       -0.2751
     27 N         139.9898  141.1506  166.1707 N.am    1  UNL1       -0.2959
     28 H         139.6603  142.0783  166.1698 H       1  UNL1        0.1502
     29 C         139.0967  140.0380  166.6341 C.3     1  UNL1        0.1364
     30 C         138.0502  138.9639  166.6011 C.3     1  UNL1        0.0353
     31 C         138.3447  139.7622  165.3658 C.3     1  UNL1        0.0353
     32 C         139.5385  139.9274  168.0632 C.1     1  UNL1        0.0896
     33 N         139.9802  139.8168  169.4924 N.1     1  UNL1       -0.1943
@<TRIPOS>BOND
     1     9    10    1
     2    10    11   ar
     3    11    12   ar
     4    12     1    1
     5     1     2    1
     6     2     3    1
     7     3     4    1
     8     4     5   am
     9     5     6    2
    10    19     5    1
    11    19    20    1
    12    20    21    1
    13    21    22    1
    14    22    23    1
    15    23    24    1
    16    24    25    1
    17    25    26    2
    18    25    27   am
    19    27    29    1
    20    29    32    1
    21    32    33    3
    22    29    30    1
    23    30    31    1
    24     4     7    1
    25     7     8    1
    26    12    13   ar
    27    13    14   ar
    28    14    15    1
    29    15    16    1
    30    15    17    1
    31    15    18    1
    32    14    10   ar
    33     8     1    1
    34    24    19    1
    35    31    29    1
    36    27    28    1
@<TRIPOS>MOLECULE
*****
 33 36 0 0 0
SMALL
GASTEIGER

@<TRIPOS>ATOM
      1 N         140.0677  140.7182  165.7441 N.pl3   1  UNL1       -0.2847
      2 C         141.0848  140.6779  164.6423 C.3     1  UNL1        0.1141
      3 C         140.6507  140.4192  163.2300 C.3     1  UNL1        0.1149
      4 N         139.1996  140.2008  162.9195 N.am    1  UNL1       -0.2760
      5 C         138.7655  139.9421  161.5071 C.2     1  UNL1        0.2257
      6 O         137.3143  139.7237  161.1966 O.2     1  UNL1       -0.2749
      7 C         138.1825  140.2411  164.0212 C.3     1  UNL1        0.1149
      8 C         138.6166  140.4998  165.4335 C.3     1  UNL1        0.1141
      9 C         140.5172  140.4091  170.9961 C.3     1  UNL1        0.0398
     10 C         140.7084  140.8348  169.5705 C.ar    1  UNL1        0.0319
     11 S         140.0105  140.2550  168.3761 S.2     1  UNL1       -0.0560
     12 C         140.5018  140.9770  167.1564 C.ar    1  UNL1        0.1628
     13 N         141.5033  142.0030  167.5971 N.ar    1  UNL1       -0.2204
     14 C         141.6310  141.9152  169.0891 C.ar    1  UNL1        0.1565
     15 C         142.5244  142.7595  169.9488 C.3     1  UNL1        0.4351
     16 F         143.4178  143.6038  170.8084 F       1  UNL1       -0.1644
     17 F         143.5669  141.6812  169.9244 F       1  UNL1       -0.1644
     18 F         141.4819  143.8378  169.9731 F       1  UNL1       -0.1644
     19 C         139.7826  139.9018  160.4054 C.3     1  UNL1        0.0853
     20 C         140.3592  138.5891  159.9646 C.3     1  UNL1        0.0096
     21 C         141.3764  138.5489  158.8628 C.3     1  UNL1        0.0005
     22 C         141.8168  139.8213  158.2018 C.3     1  UNL1        0.0005
     23 C         141.2401  141.1340  158.6426 C.3     1  UNL1        0.0096
     24 C         140.2231  141.1743  159.7443 C.3     1  UNL1        0.0851
     25 C         139.6464  142.4870  160.1851 C.2     1  UNL1        0.2231
     26 O         138.3385  142.9585  159.6219 O.2     1  UNL1       -0.2751
     27 N         140.3776  143.3281  161.1890 N.am    1  UNL1       -0.2959
     28 H         141.2360  143.0186  161.5585 H       1  UNL1        0.1502
     29 C         139.8010  144.6408  161.6297 C.3     1  UNL1        0.1364
     30 C         139.5618  146.1194  161.7100 C.3     1  UNL1        0.0353
     31 C         140.5723  145.5745  160.7447 C.3     1  UNL1        0.0353
     32 C         138.8293  144.1631  162.6678 C.1     1  UNL1        0.0896
     33 N         137.8578  143.6853  163.7059 N.1     1  UNL1       -0.1943
@<TRIPOS>BOND
     1     9    10    1
     2    10    11   ar
     3    11    12   ar
     4    12     1    1
     5     1     2    1
     6     2     3    1
     7     3     4    1
     8     4     5   am
     9     5     6    2
    10    19     5    1
    11    19    20    1
    12    20    21    1
    13    21    22    1
    14    22    23    1
    15    23    24    1
    16    24    25    1
    17    25    26    2
    18    25    27   am
    19    27    29    1
    20    29    32    1
    21    32    33    3
    22    29    30    1
    23    30    31    1
    24     4     7    1
    25     7     8    1
    26    12    13   ar
    27    13    14   ar
    28    14    15    1
    29    15    16    1
    30    15    17    1
    31    15    18    1
    32    14    10   ar
    33     8     1    1
    34    24    19    1
    35    31    29    1
    36    27    28    1
@<TRIPOS>MOLECULE
*****
 33 36 0 0 0
SMALL
GASTEIGER

@<TRIPOS>ATOM
      1 N         140.2200  138.9457  160.0782 N.pl3   1  UNL1       -0.2847
      2 C         140.3347  140.3920  160.4586 C.3     1  UNL1        0.1141
      3 C         139.8322  140.8588  161.7926 C.3     1  UNL1        0.1149
      4 N         139.2150  139.8791  162.7462 N.am    1  UNL1       -0.2760
      5 C         138.7125  140.3459  164.0803 C.2     1  UNL1        0.2257
      6 O         138.0953  139.3663  165.0339 O.2     1  UNL1       -0.2749
      7 C         139.1003  138.4328  162.3658 C.3     1  UNL1        0.1149
      8 C         139.6027  137.9660  161.0318 C.3     1  UNL1        0.1141
      9 C         140.4368  137.6770  154.9572 C.3     1  UNL1        0.0398
     10 C         140.8221  137.8957  156.3903 C.ar    1  UNL1        0.0319
     11 S         139.9280  138.4232  157.4730 S.2     1  UNL1       -0.0560
     12 C         140.7225  138.4789  158.7441 C.ar    1  UNL1        0.1628
     13 N         142.1076  137.9858  158.4470 N.ar    1  UNL1       -0.2204
     14 C         142.1692  137.6254  156.9923 C.ar    1  UNL1        0.1565
     15 C         143.3675  137.0888  156.2668 C.3     1  UNL1        0.4351
     16 F         144.5658  136.5523  155.5414 F       1  UNL1       -0.1644
     17 F         143.8550  138.4887  156.0368 F       1  UNL1       -0.1644
     18 F         142.8800  135.6890  156.4969 F       1  UNL1       -0.1644
     19 C         138.8272  141.7923  164.4607 C.3     1  UNL1        0.0853
     20 C         137.6482  142.7057  164.3007 C.3     1  UNL1        0.0096
     21 C         137.7630  144.1522  164.6812 C.3     1  UNL1        0.0005
     22 C         139.0567  144.6852  165.2216 C.3     1  UNL1        0.0005
     23 C         140.2358  143.7718  165.3815 C.3     1  UNL1        0.0096
     24 C         140.1210  142.3254  165.0011 C.3     1  UNL1        0.0851
     25 C         141.3001  141.4120  165.1611 C.2     1  UNL1        0.2231
     26 O         142.6351  141.8057  164.6018 O.2     1  UNL1       -0.2751
     27 N         141.1441  140.1050  165.8803 N.am    1  UNL1       -0.2959
     28 H         140.2679  139.8466  166.2474 H       1  UNL1        0.1502
     29 C         142.3231  139.1916  166.0402 C.3     1  UNL1        0.1364
     30 C         143.4657  138.4647  166.6852 C.3     1  UNL1        0.0353
     31 C         142.6278  139.4114  167.4924 C.3     1  UNL1        0.0353
     32 C         142.4279  138.6545  164.6436 C.1     1  UNL1        0.0896
     33 N         142.5327  138.1175  163.2470 N.1     1  UNL1       -0.1943
@<TRIPOS>BOND
     1     9    10    1
     2    10    11   ar
     3    11    12   ar
     4    12     1    1
     5     1     2    1
     6     2     3    1
     7     3     4    1
     8     4     5   am
     9     5     6    2
    10    19     5    1
    11    19    20    1
    12    20    21    1
    13    21    22    1
    14    22    23    1
    15    23    24    1
    16    24    25    1
    17    25    26    2
    18    25    27   am
    19    27    29    1
    20    29    32    1
    21    32    33    3
    22    29    30    1
    23    30    31    1
    24     4     7    1
    25     7     8    1
    26    12    13   ar
    27    13    14   ar
    28    14    15    1
    29    15    16    1
    30    15    17    1
    31    15    18    1
    32    14    10   ar
    33     8     1    1
    34    24    19    1
    35    31    29    1
    36    27    28    1
@<TRIPOS>MOLECULE
*****
 33 36 0 0 0
SMALL
GASTEIGER

@<TRIPOS>ATOM
      1 N         142.4418  140.8549  165.7033 N.pl3   1  UNL1       -0.2847
      2 C         142.0599  141.8375  164.6363 C.3     1  UNL1        0.1141
      3 C         142.4243  141.5707  163.2059 C.3     1  UNL1        0.1149
      4 N         143.1706  140.3213  162.8426 N.am    1  UNL1       -0.2760
      5 C         143.5350  140.0545  161.4122 C.2     1  UNL1        0.2257
      6 O         144.2813  138.8051  161.0489 O.2     1  UNL1       -0.2749
      7 C         143.5525  139.3387  163.9097 C.3     1  UNL1        0.1149
      8 C         143.1881  139.6055  165.3400 C.3     1  UNL1        0.1141
      9 C         142.2638  140.5885  170.9739 C.3     1  UNL1        0.0398
     10 C         141.9956  140.9992  169.5564 C.ar    1  UNL1        0.0319
     11 S         142.6381  140.4161  168.3328 S.2     1  UNL1       -0.0560
     12 C         142.0773  141.1217  167.1338 C.ar    1  UNL1        0.1628
     13 N         141.0882  142.1409  167.6163 N.ar    1  UNL1       -0.2204
     14 C         141.0377  142.0652  169.1135 C.ar    1  UNL1        0.1565
     15 C         140.1798  142.9077  170.0105 C.3     1  UNL1        0.4351
     16 F         139.3220  143.7501  170.9074 F       1  UNL1       -0.1644
     17 F         139.2035  141.7762  170.1394 F       1  UNL1       -0.1644
     18 F         141.1561  144.0392  169.8815 F       1  UNL1       -0.1644
     19 C         143.1531  141.0371  160.3451 C.3     1  UNL1        0.0853
     20 C         144.1028  142.1322  159.9594 C.3     1  UNL1        0.0096
     21 C         143.7208  143.1148  158.8923 C.3     1  UNL1        0.0005
     22 C         142.3893  143.0023  158.2110 C.3     1  UNL1        0.0005
     23 C         141.4396  141.9071  158.5967 C.3     1  UNL1        0.0096
     24 C         141.8215  140.9246  159.6638 C.3     1  UNL1        0.0851
     25 C         140.8718  139.8294  160.0495 C.2     1  UNL1        0.2231
     26 O         140.8444  138.5502  159.2666 O.2     1  UNL1       -0.2751
     27 N         139.9496  140.0135  161.2181 N.am    1  UNL1       -0.2959
     28 H         139.9676  140.8531  161.7319 H       1  UNL1        0.1502
     29 C         138.9999  138.9184  161.6039 C.3     1  UNL1        0.1364
     30 C         137.7209  138.1489  161.7512 C.3     1  UNL1        0.0353
     31 C         137.7215  139.4756  161.0514 C.3     1  UNL1        0.0353
     32 C         139.9485  137.9808  162.2903 C.1     1  UNL1        0.0896
     33 N         140.8970  137.0433  162.9768 N.1     1  UNL1       -0.1943
@<TRIPOS>BOND
     1     9    10    1
     2    10    11   ar
     3    11    12   ar
     4    12     1    1
     5     1     2    1
     6     2     3    1
     7     3     4    1
     8     4     5   am
     9     5     6    2
    10    19     5    1
    11    19    20    1
    12    20    21    1
    13    21    22    1
    14    22    23    1
    15    23    24    1
    16    24    25    1
    17    25    26    2
    18    25    27   am
    19    27    29    1
    20    29    32    1
    21    32    33    3
    22    29    30    1
    23    30    31    1
    24     4     7    1
    25     7     8    1
    26    12    13   ar
    27    13    14   ar
    28    14    15    1
    29    15    16    1
    30    15    17    1
    31    15    18    1
    32    14    10   ar
    33     8     1    1
    34    24    19    1
    35    31    29    1
    36    27    28    1
@<TRIPOS>MOLECULE
*****
 33 36 0 0 0
SMALL
GASTEIGER

@<TRIPOS>ATOM
      1 N         141.1010  142.9755  164.7855 N.pl3   1  UNL1       -0.2847
      2 C         141.9972  142.2356  163.8372 C.3     1  UNL1        0.1141
      3 C         141.8541  142.4379  162.3578 C.3     1  UNL1        0.1149
      4 N         140.8147  143.3801  161.8267 N.am    1  UNL1       -0.2760
      5 C         140.6717  143.5823  160.3473 C.2     1  UNL1        0.2257
      6 O         139.6323  144.5245  159.8162 O.2     1  UNL1       -0.2749
      7 C         139.9185  144.1199  162.7750 C.3     1  UNL1        0.1149
      8 C         140.0616  143.9176  164.2544 C.3     1  UNL1        0.1141
      9 C         143.0414  141.6116  169.5031 C.3     1  UNL1        0.0398
     10 C         142.1360  142.1463  168.4333 C.ar    1  UNL1        0.0319
     11 S         142.4150  142.1436  166.9595 S.2     1  UNL1       -0.0560
     12 C         141.2440  142.7732  166.2649 C.ar    1  UNL1        0.1628
     13 N         140.2413  143.1650  167.3094 N.ar    1  UNL1       -0.2204
     14 C         140.7925  142.7776  168.6496 C.ar    1  UNL1        0.1565
     15 C         140.1186  142.9850  169.9736 C.3     1  UNL1        0.4351
     16 F         139.4448  143.1924  171.2975 F       1  UNL1       -0.1644
     17 F         140.7140  144.3589  170.0614 F       1  UNL1       -0.1644
     18 F         139.5232  141.6110  169.8857 F       1  UNL1       -0.1644
     19 C         141.5679  142.8425  159.3990 C.3     1  UNL1        0.0853
     20 C         142.8103  143.4993  158.8744 C.3     1  UNL1        0.0096
     21 C         143.7066  142.7594  157.9261 C.3     1  UNL1        0.0005
     22 C         143.3605  141.3627  157.5024 C.3     1  UNL1        0.0005
     23 C         142.1182  140.7059  158.0270 C.3     1  UNL1        0.0096
     24 C         141.2219  141.4458  158.9753 C.3     1  UNL1        0.0851
     25 C         139.9795  140.7890  159.4999 C.2     1  UNL1        0.2231
     26 O         138.7128  140.8315  158.6976 O.2     1  UNL1       -0.2751
     27 N         140.0039  140.0896  160.8266 N.am    1  UNL1       -0.2959
     28 H         140.8354  140.0617  161.3531 H       1  UNL1        0.1502
     29 C         138.7616  139.4328  161.3512 C.3     1  UNL1        0.1364
     30 C         137.7734  138.3584  161.6959 C.3     1  UNL1        0.0353
     31 C         139.0617  138.0020  161.0154 C.3     1  UNL1        0.0353
     32 C         138.0300  140.6355  161.8692 C.1     1  UNL1        0.0896
     33 N         137.2984  141.8382  162.3871 N.1     1  UNL1       -0.1943
@<TRIPOS>BOND
     1     9    10    1
     2    10    11   ar
     3    11    12   ar
     4    12     1    1
     5     1     2    1
     6     2     3    1
     7     3     4    1
     8     4     5   am
     9     5     6    2
    10    19     5    1
    11    19    20    1
    12    20    21    1
    13    21    22    1
    14    22    23    1
    15    23    24    1
    16    24    25    1
    17    25    26    2
    18    25    27   am
    19    27    29    1
    20    29    32    1
    21    32    33    3
    22    29    30    1
    23    30    31    1
    24     4     7    1
    25     7     8    1
    26    12    13   ar
    27    13    14   ar
    28    14    15    1
    29    15    16    1
    30    15    17    1
    31    15    18    1
    32    14    10   ar
    33     8     1    1
    34    24    19    1
    35    31    29    1
    36    27    28    1
@<TRIPOS>MOLECULE
*****
 33 36 0 0 0
SMALL
GASTEIGER

@<TRIPOS>ATOM
      1 N         142.7889  138.4673  159.5223 N.pl3   1  UNL1       -0.2847
      2 C         142.3018  138.0319  160.8725 C.3     1  UNL1        0.1141
      3 C         142.8032  138.7189  162.1081 C.3     1  UNL1        0.1149
      4 N         143.7917  139.8413  161.9934 N.am    1  UNL1       -0.2760
      5 C         144.2931  140.5283  163.2290 C.2     1  UNL1        0.2257
      6 O         145.2817  141.6506  163.1143 O.2     1  UNL1       -0.2749
      7 C         144.2789  140.2766  160.6432 C.3     1  UNL1        0.1149
      8 C         143.7774  139.5897  159.4076 C.3     1  UNL1        0.1141
      9 C         139.7191  137.0152  155.4789 C.3     1  UNL1        0.0398
     10 C         140.8765  137.1129  156.4281 C.ar    1  UNL1        0.0319
     11 S         140.9582  138.0070  157.6297 S.2     1  UNL1       -0.0560
     12 C         142.2875  137.7803  158.2867 C.ar    1  UNL1        0.1628
     13 N         143.0274  136.7461  157.4911 N.ar    1  UNL1       -0.2204
     14 C         142.1553  136.3336  156.3424 C.ar    1  UNL1        0.1565
     15 C         142.5014  135.3198  155.2924 C.3     1  UNL1        0.4351
     16 F         142.8474  134.3060  154.2424 F       1  UNL1       -0.1644
     17 F         142.0188  134.2219  156.1935 F       1  UNL1       -0.1644
     18 F         142.9839  136.4177  154.3914 F       1  UNL1       -0.1644
     19 C         143.8060  140.0929  164.5792 C.3     1  UNL1        0.0853
     20 C         144.1987  138.7505  165.1213 C.3     1  UNL1        0.0096
     21 C         143.7116  138.3152  166.4716 C.3     1  UNL1        0.0005
     22 C         142.8317  139.2222  167.2797 C.3     1  UNL1        0.0005
     23 C         142.4390  140.5645  166.7377 C.3     1  UNL1        0.0096
     24 C         142.9261  140.9999  165.3875 C.3     1  UNL1        0.0851
     25 C         142.5334  142.3423  164.8454 C.2     1  UNL1        0.2231
     26 O         143.3662  143.5501  165.1578 O.2     1  UNL1       -0.2751
     27 N         141.3079  142.4768  163.9910 N.am    1  UNL1       -0.2959
     28 H         140.7613  141.6841  163.7860 H       1  UNL1        0.1502
     29 C         140.9152  143.8192  163.4490 C.3     1  UNL1        0.1364
     30 C         140.1859  145.1217  163.3025 C.3     1  UNL1        0.0353
     31 C         139.8096  144.1708  164.3998 C.3     1  UNL1        0.0353
     32 C         141.8844  143.9338  162.3099 C.1     1  UNL1        0.0896
     33 N         142.8535  144.0484  161.1708 N.1     1  UNL1       -0.1943
@<TRIPOS>BOND
     1     9    10    1
     2    10    11   ar
     3    11    12   ar
     4    12     1    1
     5     1     2    1
     6     2     3    1
     7     3     4    1
     8     4     5   am
     9     5     6    2
    10    19     5    1
    11    19    20    1
    12    20    21    1
    13    21    22    1
    14    22    23    1
    15    23    24    1
    16    24    25    1
    17    25    26    2
    18    25    27   am
    19    27    29    1
    20    29    32    1
    21    32    33    3
    22    29    30    1
    23    30    31    1
    24     4     7    1
    25     7     8    1
    26    12    13   ar
    27    13    14   ar
    28    14    15    1
    29    15    16    1
    30    15    17    1
    31    15    18    1
    32    14    10   ar
    33     8     1    1
    34    24    19    1
    35    31    29    1
    36    27    28    1
@<TRIPOS>MOLECULE
*****
 33 36 0 0 0
SMALL
GASTEIGER

@<TRIPOS>ATOM
      1 N         139.9500  144.4661  159.1570 N.pl3   1  UNL1       -0.2847
      2 C         139.5475  143.0951  159.6135 C.3     1  UNL1        0.1141
      3 C         139.6075  142.7421  161.0701 C.3     1  UNL1        0.1149
      4 N         140.0701  143.7599  162.0701 N.am    1  UNL1       -0.2760
      5 C         140.1301  143.4068  163.5268 C.2     1  UNL1        0.2257
      6 O         140.5927  144.4246  164.5268 O.2     1  UNL1       -0.2749
      7 C         140.4726  145.1308  161.6136 C.3     1  UNL1        0.1149
      8 C         140.4126  145.4839  160.1570 C.3     1  UNL1        0.1141
      9 C         139.7111  144.0625  153.8976 C.3     1  UNL1        0.0398
     10 C         139.7802  144.6337  155.2828 C.ar    1  UNL1        0.0319
     11 S         139.8265  143.8474  156.5594 S.2     1  UNL1       -0.0560
     12 C         139.8900  144.8192  157.7003 C.ar    1  UNL1        0.1628
     13 N         139.8830  146.2060  157.1288 N.ar    1  UNL1       -0.2204
     14 C         139.8152  146.0914  155.6348 C.ar    1  UNL1        0.1565
     15 C         139.7872  147.2339  154.6632 C.3     1  UNL1        0.4351
     16 F         139.7592  148.3764  153.6916 F       1  UNL1       -0.1644
     17 F         141.1790  146.8916  154.2206 F       1  UNL1       -0.1644
     18 F         138.3954  147.5762  155.1058 F       1  UNL1       -0.1644
     19 C         139.7275  142.0359  163.9834 C.3     1  UNL1        0.0853
     20 C         138.3433  141.7969  164.5094 C.3     1  UNL1        0.0096
     21 C         137.9407  140.4259  164.9660 C.3     1  UNL1        0.0005
     22 C         138.9224  139.2939  164.8965 C.3     1  UNL1        0.0005
     23 C         140.3067  139.5329  164.3704 C.3     1  UNL1        0.0096
     24 C         140.7092  140.9038  163.9138 C.3     1  UNL1        0.0851
     25 C         142.0935  141.1427  163.3877 C.2     1  UNL1        0.2231
     26 O         142.4221  140.8094  161.9626 O.2     1  UNL1       -0.2751
     27 N         143.1491  141.7150  164.2867 N.am    1  UNL1       -0.2959
     28 H         142.9334  141.9338  165.2220 H       1  UNL1        0.1502
     29 C         144.5333  141.9539  163.7606 C.3     1  UNL1        0.1364
     30 C         145.9784  141.7165  163.4363 C.3     1  UNL1        0.0353
     31 C         145.1895  140.6652  164.1590 C.3     1  UNL1        0.0353
     32 C         144.3580  143.3256  163.1795 C.1     1  UNL1        0.0896
     33 N         144.1826  144.6973  162.5984 N.1     1  UNL1       -0.1943
@<TRIPOS>BOND
     1     9    10    1
     2    10    11   ar
     3    11    12   ar
     4    12     1    1
     5     1     2    1
     6     2     3    1
     7     3     4    1
     8     4     5   am
     9     5     6    2
    10    19     5    1
    11    19    20    1
    12    20    21    1
    13    21    22    1
    14    22    23    1
    15    23    24    1
    16    24    25    1
    17    25    26    2
    18    25    27   am
    19    27    29    1
    20    29    32    1
    21    32    33    3
    22    29    30    1
    23    30    31    1
    24     4     7    1
    25     7     8    1
    26    12    13   ar
    27    13    14   ar
    28    14    15    1
    29    15    16    1
    30    15    17    1
    31    15    18    1
    32    14    10   ar
    33     8     1    1
    34    24    19    1
    35    31    29    1
    36    27    28    1
