@<TRIPOS>MOLECULE
*****
 26 29 0 0 0
SMALL
GASTEIGER

@<TRIPOS>ATOM
      1 C         141.7850  143.3472  163.0734 C.ar    1  UNL1        0.0843
      2 C         143.0036  143.7874  163.8293 C.ar    1  UNL1        0.0192
      3 C         143.4005  143.0789  165.0904 C.ar    1  UNL1        0.0030
      4 C         142.5788  141.9301  165.5956 C.ar    1  UNL1        0.0174
      5 C         142.9758  141.2215  166.8567 C.ar    1  UNL1       -0.0027
      6 C         142.1541  140.0728  167.3620 C.ar    1  UNL1       -0.0207
      7 C         140.9355  139.6326  166.6060 C.ar    1  UNL1       -0.0027
      8 C         140.5387  140.3411  165.3450 C.ar    1  UNL1        0.0188
      9 C         141.3603  141.4899  164.8397 C.ar    1  UNL1        0.0812
     10 N         140.9634  142.1985  163.5787 N.ar    1  UNL1       -0.2453
     11 C         140.5941  145.4729  159.2901 C.ar    1  UNL1        0.3201
     12 N         141.8755  144.6947  159.3416 N.ar    1  UNL1       -0.1926
     13 C         142.2724  143.9862  160.6027 C.ar    1  UNL1        0.1066
     14 C         141.3881  144.0558  161.8123 C.ar    1  UNL1        0.0562
     15 C         140.1068  144.8340  161.7608 C.ar    1  UNL1        0.1066
     16 N         139.7098  145.5425  160.4997 N.ar    1  UNL1       -0.1926
     17 C         140.9785  145.9619  156.7676 C.3     1  UNL1        0.2559
     18 O         140.1972  146.1815  158.0290 O.3     1  UNL1       -0.4426
     19 C         142.5510  139.3642  168.6230 C.3     1  UNL1        0.0437
     20 C         142.3672  140.0370  169.9511 C.3     1  UNL1        0.0768
     21 N         141.6772  141.3666  170.0291 N.3     1  UNL1       -0.2737
     22 C         142.3489  142.7034  170.1377 C.3     1  UNL1        0.0721
     23 C         141.2813  143.7559  170.1879 C.3     1  UNL1        0.0187
     24 C         139.9498  143.0695  170.1103 C.3     1  UNL1        0.0174
     25 C         140.1945  141.5928  170.0121 C.3     1  UNL1        0.0576
     26 C         139.1414  140.5292  169.9142 C.3     1  UNL1        0.0173
@<TRIPOS>BOND
     1    17    18    1
     2    18    11    1
     3    11    12   ar
     4    12    13   ar
     5    13    14   ar
     6    14     1    1
     7     1     2   ar
     8     2     3   ar
     9     3     4   ar
    10     4     5   ar
    11     5     6   ar
    12     6    19    1
    13    19    20    1
    14    20    21    1
    15    21    22    1
    16    22    23    1
    17    23    24    1
    18    24    25    1
    19    25    26    1
    20     6     7   ar
    21     7     8   ar
    22     8     9   ar
    23     9    10   ar
    24    14    15   ar
    25    15    16   ar
    26    16    11   ar
    27    10     1   ar
    28     9     4   ar
    29    25    21    1
@<TRIPOS>MOLECULE
*****
 26 29 0 0 0
SMALL
GASTEIGER

@<TRIPOS>ATOM
      1 C         141.5698  138.4291  159.6443 C.ar    1  UNL1        0.0843
      2 C         140.0841  138.5097  159.4547 C.ar    1  UNL1        0.0192
      3 C         139.1672  138.3246  160.6274 C.ar    1  UNL1        0.0030
      4 C         139.7362  138.0590  161.9896 C.ar    1  UNL1        0.0174
      5 C         138.8193  137.8740  163.1623 C.ar    1  UNL1       -0.0027
      6 C         139.3882  137.6083  164.5246 C.ar    1  UNL1       -0.0207
      7 C         140.8740  137.5278  164.7142 C.ar    1  UNL1       -0.0027
      8 C         141.7908  137.7128  163.5415 C.ar    1  UNL1        0.0188
      9 C         141.2219  137.9784  162.1792 C.ar    1  UNL1        0.0812
     10 N         142.1387  138.1635  161.0066 N.ar    1  UNL1       -0.2453
     11 C         144.3205  138.9842  156.1263 C.ar    1  UNL1        0.3201
     12 N         143.5440  137.7097  156.2775 N.ar    1  UNL1       -0.1926
     13 C         142.6271  137.5247  157.4502 C.ar    1  UNL1        0.1066
     14 C         142.4867  138.6141  158.4716 C.ar    1  UNL1        0.0562
     15 C         143.2632  139.8886  158.3205 C.ar    1  UNL1        0.1066
     16 N         144.1800  140.0736  157.1479 N.ar    1  UNL1       -0.1926
     17 C         145.8129  140.5225  154.6580 C.3     1  UNL1        0.2559
     18 O         145.2374  139.1693  154.9537 O.3     1  UNL1       -0.4426
     19 C         138.4714  137.4233  165.6972 C.3     1  UNL1        0.0437
     20 C         138.0158  138.6136  166.4883 C.3     1  UNL1        0.0768
     21 N         138.9276  139.7918  166.6627 N.3     1  UNL1       -0.2737
     22 C         139.9079  139.9902  167.7805 C.3     1  UNL1        0.0721
     23 C         140.6053  141.2996  167.5586 C.3     1  UNL1        0.0187
     24 C         140.0560  141.9104  166.3034 C.3     1  UNL1        0.0174
     25 C         139.0191  140.9785  165.7498 C.3     1  UNL1        0.0576
     26 C         138.2150  141.1954  164.5023 C.3     1  UNL1        0.0173
@<TRIPOS>BOND
     1    17    18    1
     2    18    11    1
     3    11    12   ar
     4    12    13   ar
     5    13    14   ar
     6    14     1    1
     7     1     2   ar
     8     2     3   ar
     9     3     4   ar
    10     4     5   ar
    11     5     6   ar
    12     6    19    1
    13    19    20    1
    14    20    21    1
    15    21    22    1
    16    22    23    1
    17    23    24    1
    18    24    25    1
    19    25    26    1
    20     6     7   ar
    21     7     8   ar
    22     8     9   ar
    23     9    10   ar
    24    14    15   ar
    25    15    16   ar
    26    16    11   ar
    27    10     1   ar
    28     9     4   ar
    29    25    21    1
@<TRIPOS>MOLECULE
*****
 26 29 0 0 0
SMALL
GASTEIGER

@<TRIPOS>ATOM
      1 C         141.6057  139.2612  163.1872 C.ar    1  UNL1        0.0843
      2 C         142.5134  140.1289  164.0076 C.ar    1  UNL1        0.0192
      3 C         142.1334  140.4955  165.4115 C.ar    1  UNL1        0.0030
      4 C         140.8456  139.9944  165.9951 C.ar    1  UNL1        0.0174
      5 C         140.4656  140.3611  167.3991 C.ar    1  UNL1       -0.0027
      6 C         139.1779  139.8600  167.9827 C.ar    1  UNL1       -0.0207
      7 C         138.2701  138.9923  167.1623 C.ar    1  UNL1       -0.0027
      8 C         138.6501  138.6256  165.7584 C.ar    1  UNL1        0.0188
      9 C         139.9379  139.1267  165.1748 C.ar    1  UNL1        0.0812
     10 N         140.3179  138.7601  163.7708 N.ar    1  UNL1       -0.2453
     11 C         142.7456  138.1611  158.9752 C.ar    1  UNL1        0.3201
     12 N         143.8052  138.2934  160.0287 N.ar    1  UNL1       -0.1926
     13 C         143.4252  138.6600  161.4327 C.ar    1  UNL1        0.1066
     14 C         141.9857  138.8945  161.7832 C.ar    1  UNL1        0.0562
     15 C         140.9261  138.7622  160.7297 C.ar    1  UNL1        0.1066
     16 N         141.3061  138.3955  159.3257 N.ar    1  UNL1       -0.1926
     17 C         142.8780  136.4039  157.0661 C.3     1  UNL1        0.2559
     18 O         143.1256  137.7944  157.5712 O.3     1  UNL1       -0.4426
     19 C         138.7978  140.2267  169.3867 C.3     1  UNL1        0.0437
     20 C         139.8185  140.1530  170.4835 C.3     1  UNL1        0.0768
     21 N         141.1094  140.9064  170.3586 N.3     1  UNL1       -0.2737
     22 C         141.2736  142.3949  170.4457 C.3     1  UNL1        0.0721
     23 C         142.7286  142.7121  170.2656 C.3     1  UNL1        0.0187
     24 C         143.4636  141.4196  170.0671 C.3     1  UNL1        0.0174
     25 C         142.4629  140.3037  170.1247 C.3     1  UNL1        0.0576
     26 C         142.7631  138.8417  169.9746 C.3     1  UNL1        0.0173
@<TRIPOS>BOND
     1    17    18    1
     2    18    11    1
     3    11    12   ar
     4    12    13   ar
     5    13    14   ar
     6    14     1    1
     7     1     2   ar
     8     2     3   ar
     9     3     4   ar
    10     4     5   ar
    11     5     6   ar
    12     6    19    1
    13    19    20    1
    14    20    21    1
    15    21    22    1
    16    22    23    1
    17    23    24    1
    18    24    25    1
    19    25    26    1
    20     6     7   ar
    21     7     8   ar
    22     8     9   ar
    23     9    10   ar
    24    14    15   ar
    25    15    16   ar
    26    16    11   ar
    27    10     1   ar
    28     9     4   ar
    29    25    21    1
@<TRIPOS>MOLECULE
*****
 26 29 0 0 0
SMALL
GASTEIGER

@<TRIPOS>ATOM
      1 C         138.5346  139.9460  160.5892 C.ar    1  UNL1        0.0843
      2 C         138.2639  141.2968  161.1825 C.ar    1  UNL1        0.0192
      3 C         138.2170  141.4659  162.6722 C.ar    1  UNL1        0.0030
      4 C         138.4409  140.2842  163.5685 C.ar    1  UNL1        0.0174
      5 C         138.3940  140.4533  165.0583 C.ar    1  UNL1       -0.0027
      6 C         138.6179  139.2717  165.9547 C.ar    1  UNL1       -0.0207
      7 C         138.8887  137.9208  165.3613 C.ar    1  UNL1       -0.0027
      8 C         138.9356  137.7517  163.8716 C.ar    1  UNL1        0.0188
      9 C         138.7117  138.9334  162.9752 C.ar    1  UNL1        0.0812
     10 N         138.7585  138.7643  161.4856 N.ar    1  UNL1       -0.2453
     11 C         138.6753  139.4386  156.1200 C.ar    1  UNL1        0.3201
     12 N         137.7836  140.4798  156.7289 N.ar    1  UNL1       -0.1926
     13 C         137.7367  140.6489  158.2187 C.ar    1  UNL1        0.1066
     14 C         138.5815  139.7769  159.0994 C.ar    1  UNL1        0.0562
     15 C         139.4732  138.7357  158.4906 C.ar    1  UNL1        0.1066
     16 N         139.5202  138.5665  157.0009 N.ar    1  UNL1       -0.1926
     17 C         138.4960  137.9173  154.0217 C.3     1  UNL1        0.2559
     18 O         138.7222  139.2694  154.6304 O.3     1  UNL1       -0.4426
     19 C         138.5710  139.4407  167.4443 C.3     1  UNL1        0.0437
     20 C         139.8180  139.7964  168.1984 C.3     1  UNL1        0.0768
     21 N         139.9389  141.1384  168.8575 N.3     1  UNL1       -0.2737
     22 C         139.5338  141.4701  170.2632 C.3     1  UNL1        0.0721
     23 C         139.8306  142.9210  170.5011 C.3     1  UNL1        0.0187
     24 C         140.4192  143.4861  169.2423 C.3     1  UNL1        0.0174
     25 C         140.4861  142.3844  168.2266 C.3     1  UNL1        0.0576
     26 C         141.0085  142.5072  166.8259 C.3     1  UNL1        0.0173
@<TRIPOS>BOND
     1    17    18    1
     2    18    11    1
     3    11    12   ar
     4    12    13   ar
     5    13    14   ar
     6    14     1    1
     7     1     2   ar
     8     2     3   ar
     9     3     4   ar
    10     4     5   ar
    11     5     6   ar
    12     6    19    1
    13    19    20    1
    14    20    21    1
    15    21    22    1
    16    22    23    1
    17    23    24    1
    18    24    25    1
    19    25    26    1
    20     6     7   ar
    21     7     8   ar
    22     8     9   ar
    23     9    10   ar
    24    14    15   ar
    25    15    16   ar
    26    16    11   ar
    27    10     1   ar
    28     9     4   ar
    29    25    21    1
@<TRIPOS>MOLECULE
*****
 26 29 0 0 0
SMALL
GASTEIGER

@<TRIPOS>ATOM
      1 C         142.6341  140.1329  162.0750 C.ar    1  UNL1        0.0843
      2 C         142.9099  138.8098  162.7256 C.ar    1  UNL1        0.0192
      3 C         142.3155  138.4948  164.0662 C.ar    1  UNL1        0.0030
      4 C         141.4452  139.5030  164.7563 C.ar    1  UNL1        0.0174
      5 C         140.8508  139.1880  166.0971 C.ar    1  UNL1       -0.0027
      6 C         139.9805  140.1961  166.7872 C.ar    1  UNL1       -0.0207
      7 C         139.7047  141.5193  166.1366 C.ar    1  UNL1       -0.0027
      8 C         140.2991  141.8342  164.7959 C.ar    1  UNL1        0.0188
      9 C         141.1694  140.8261  164.1058 C.ar    1  UNL1        0.0812
     10 N         141.7638  141.1410  162.7651 N.ar    1  UNL1       -0.2453
     11 C         144.4173  141.0778  158.0528 C.ar    1  UNL1        0.3201
     12 N         144.1534  142.1812  159.0341 N.ar    1  UNL1       -0.1926
     13 C         143.5589  141.8662  160.3749 C.ar    1  UNL1        0.1066
     14 C         143.2285  140.4479  160.7343 C.ar    1  UNL1        0.0562
     15 C         143.4924  139.3445  159.7530 C.ar    1  UNL1        0.1066
     16 N         144.0868  139.6595  158.4123 N.ar    1  UNL1       -0.1926
     17 C         146.3596  142.0449  156.6239 C.3     1  UNL1        0.2559
     18 O         145.0117  141.3928  156.7122 O.3     1  UNL1       -0.4426
     19 C         139.3861  139.8812  168.1279 C.3     1  UNL1        0.0437
     20 C         139.6367  140.7930  169.2923 C.3     1  UNL1        0.0768
     21 N         141.0205  141.3072  169.5580 N.3     1  UNL1       -0.2737
     22 C         142.2688  140.4792  169.6369 C.3     1  UNL1        0.0721
     23 C         143.4188  141.4000  169.9191 C.3     1  UNL1        0.0187
     24 C         142.8812  142.7972  170.0146 C.3     1  UNL1        0.0174
     25 C         141.3990  142.7398  169.7914 C.3     1  UNL1        0.0576
     26 C         140.4601  143.9096  169.8002 C.3     1  UNL1        0.0173
@<TRIPOS>BOND
     1    17    18    1
     2    18    11    1
     3    11    12   ar
     4    12    13   ar
     5    13    14   ar
     6    14     1    1
     7     1     2   ar
     8     2     3   ar
     9     3     4   ar
    10     4     5   ar
    11     5     6   ar
    12     6    19    1
    13    19    20    1
    14    20    21    1
    15    21    22    1
    16    22    23    1
    17    23    24    1
    18    24    25    1
    19    25    26    1
    20     6     7   ar
    21     7     8   ar
    22     8     9   ar
    23     9    10   ar
    24    14    15   ar
    25    15    16   ar
    26    16    11   ar
    27    10     1   ar
    28     9     4   ar
    29    25    21    1
@<TRIPOS>MOLECULE
*****
 26 29 0 0 0
SMALL
GASTEIGER

@<TRIPOS>ATOM
      1 C         139.1398  140.7608  162.2728 C.ar    1  UNL1        0.0843
      2 C         138.1301  140.7076  163.3809 C.ar    1  UNL1        0.0192
      3 C         138.5727  140.4244  164.7858 C.ar    1  UNL1        0.0030
      4 C         140.0250  140.1943  165.0826 C.ar    1  UNL1        0.0174
      5 C         140.4676  139.9110  166.4877 C.ar    1  UNL1       -0.0027
      6 C         141.9198  139.6810  166.7845 C.ar    1  UNL1       -0.0207
      7 C         142.9294  139.7342  165.6764 C.ar    1  UNL1       -0.0027
      8 C         142.4868  140.0174  164.2715 C.ar    1  UNL1        0.0188
      9 C         141.0346  140.2475  163.9746 C.ar    1  UNL1        0.0812
     10 N         140.5920  140.5307  162.5697 N.ar    1  UNL1       -0.2453
     11 C         137.8120  141.6106  158.0579 C.ar    1  UNL1        0.3201
     12 N         137.8166  140.2019  158.5731 N.ar    1  UNL1       -0.1926
     13 C         138.2592  139.9186  159.9782 C.ar    1  UNL1        0.1066
     14 C         138.6972  141.0440  160.8678 C.ar    1  UNL1        0.0562
     15 C         138.6926  142.4528  160.3526 C.ar    1  UNL1        0.1066
     16 N         138.2500  142.7361  158.9477 N.ar    1  UNL1       -0.1926
     17 C         136.1058  141.2807  156.1267 C.3     1  UNL1        0.2559
     18 O         137.3695  141.8939  156.6530 O.3     1  UNL1       -0.4426
     19 C         142.3624  139.3977  168.1894 C.3     1  UNL1        0.0437
     20 C         142.7580  140.5276  169.0934 C.3     1  UNL1        0.0768
     21 N         141.7400  141.5482  169.5078 N.3     1  UNL1       -0.2737
     22 C         141.7988  143.0193  169.2206 C.3     1  UNL1        0.0721
     23 C         140.5796  143.6573  169.8175 C.3     1  UNL1        0.0187
     24 C         139.7672  142.5804  170.4738 C.3     1  UNL1        0.0174
     25 C         140.4844  141.2770  170.2823 C.3     1  UNL1        0.0576
     26 C         140.0264  139.9376  170.7783 C.3     1  UNL1        0.0173
@<TRIPOS>BOND
     1    17    18    1
     2    18    11    1
     3    11    12   ar
     4    12    13   ar
     5    13    14   ar
     6    14     1    1
     7     1     2   ar
     8     2     3   ar
     9     3     4   ar
    10     4     5   ar
    11     5     6   ar
    12     6    19    1
    13    19    20    1
    14    20    21    1
    15    21    22    1
    16    22    23    1
    17    23    24    1
    18    24    25    1
    19    25    26    1
    20     6     7   ar
    21     7     8   ar
    22     8     9   ar
    23     9    10   ar
    24    14    15   ar
    25    15    16   ar
    26    16    11   ar
    27    10     1   ar
    28     9     4   ar
    29    25    21    1
@<TRIPOS>MOLECULE
*****
 26 29 0 0 0
SMALL
GASTEIGER

@<TRIPOS>ATOM
      1 C         143.5816  141.0643  162.3580 C.ar    1  UNL1        0.0843
      2 C         142.9748  142.2351  163.0730 C.ar    1  UNL1        0.0192
      3 C         142.6517  142.1360  164.5344 C.ar    1  UNL1        0.0030
      4 C         142.9354  140.8663  165.2809 C.ar    1  UNL1        0.0174
      5 C         142.6123  140.7673  166.7424 C.ar    1  UNL1       -0.0027
      6 C         142.8960  139.4975  167.4888 C.ar    1  UNL1       -0.0207
      7 C         143.5028  138.3268  166.7738 C.ar    1  UNL1       -0.0027
      8 C         143.8259  138.4258  165.3124 C.ar    1  UNL1        0.0188
      9 C         143.5422  139.6956  164.5659 C.ar    1  UNL1        0.0812
     10 N         143.8653  139.7946  163.1045 N.ar    1  UNL1       -0.2453
     11 C         144.5509  141.3612  157.9737 C.ar    1  UNL1        0.3201
     12 N         144.6765  142.5699  158.8530 N.ar    1  UNL1       -0.1926
     13 C         144.3534  142.4709  160.3145 C.ar    1  UNL1        0.1066
     14 C         143.9047  141.1633  160.8966 C.ar    1  UNL1        0.0562
     15 C         143.7791  139.9546  160.0172 C.ar    1  UNL1        0.1066
     16 N         144.1022  140.0536  158.5558 N.ar    1  UNL1       -0.1926
     17 C         145.5644  140.3237  155.8182 C.3     1  UNL1        0.2559
     18 O         144.8740  141.4602  156.5122 O.3     1  UNL1       -0.4426
     19 C         142.5729  139.3985  168.9502 C.3     1  UNL1        0.0437
     20 C         142.8326  140.5653  169.8566 C.3     1  UNL1        0.0768
     21 N         141.7964  141.6383  170.0135 N.3     1  UNL1       -0.2737
     22 C         142.0074  143.1069  169.7925 C.3     1  UNL1        0.0721
     23 C         140.7085  143.8074  170.0614 C.3     1  UNL1        0.0187
     24 C         139.6948  142.7718  170.4484 C.3     1  UNL1        0.0174
     25 C         140.3671  141.4312  170.4188 C.3     1  UNL1        0.0576
     26 C         139.7232  140.1147  170.7385 C.3     1  UNL1        0.0173
@<TRIPOS>BOND
     1    17    18    1
     2    18    11    1
     3    11    12   ar
     4    12    13   ar
     5    13    14   ar
     6    14     1    1
     7     1     2   ar
     8     2     3   ar
     9     3     4   ar
    10     4     5   ar
    11     5     6   ar
    12     6    19    1
    13    19    20    1
    14    20    21    1
    15    21    22    1
    16    22    23    1
    17    23    24    1
    18    24    25    1
    19    25    26    1
    20     6     7   ar
    21     7     8   ar
    22     8     9   ar
    23     9    10   ar
    24    14    15   ar
    25    15    16   ar
    26    16    11   ar
    27    10     1   ar
    28     9     4   ar
    29    25    21    1
@<TRIPOS>MOLECULE
*****
 26 29 0 0 0
SMALL
GASTEIGER

@<TRIPOS>ATOM
      1 C         139.3323  142.7961  161.6629 C.ar    1  UNL1        0.0843
      2 C         137.9756  142.2316  161.9641 C.ar    1  UNL1        0.0192
      3 C         137.7245  141.5400  163.2712 C.ar    1  UNL1        0.0030
      4 C         138.8299  141.4130  164.2771 C.ar    1  UNL1        0.0174
      5 C         138.5787  140.7214  165.5843 C.ar    1  UNL1       -0.0027
      6 C         139.6842  140.5944  166.5902 C.ar    1  UNL1       -0.0207
      7 C         141.0409  141.1590  166.2889 C.ar    1  UNL1       -0.0027
      8 C         141.2920  141.8506  164.9818 C.ar    1  UNL1        0.0188
      9 C         140.1866  141.9776  163.9759 C.ar    1  UNL1        0.0812
     10 N         140.4377  142.6691  162.6688 N.ar    1  UNL1       -0.2453
     11 C         140.0860  144.8710  157.7414 C.ar    1  UNL1        0.3201
     12 N         139.3330  143.5740  157.7711 N.ar    1  UNL1       -0.1926
     13 C         139.0818  142.8824  159.0783 C.ar    1  UNL1        0.1066
     14 C         139.5835  143.4878  160.3557 C.ar    1  UNL1        0.0562
     15 C         140.3365  144.7847  160.3260 C.ar    1  UNL1        0.1066
     16 N         140.5877  145.4763  159.0189 N.ar    1  UNL1       -0.1926
     17 C         141.6962  145.5012  155.8025 C.3     1  UNL1        0.2559
     18 O         140.3372  145.5626  156.4343 O.3     1  UNL1       -0.4426
     19 C         139.4330  139.9028  167.8973 C.3     1  UNL1        0.0437
     20 C         139.6622  140.6322  169.1879 C.3     1  UNL1        0.0768
     21 N         141.0205  141.1828  169.5072 N.3     1  UNL1       -0.2737
     22 C         142.2811  140.3849  169.6629 C.3     1  UNL1        0.0721
     23 C         143.3963  141.3370  169.9788 C.3     1  UNL1        0.0187
     24 C         142.8248  142.7234  170.0183 C.3     1  UNL1        0.0174
     25 C         141.3565  142.6281  169.7268 C.3     1  UNL1        0.0576
     26 C         140.3934  143.7764  169.6658 C.3     1  UNL1        0.0173
@<TRIPOS>BOND
     1    17    18    1
     2    18    11    1
     3    11    12   ar
     4    12    13   ar
     5    13    14   ar
     6    14     1    1
     7     1     2   ar
     8     2     3   ar
     9     3     4   ar
    10     4     5   ar
    11     5     6   ar
    12     6    19    1
    13    19    20    1
    14    20    21    1
    15    21    22    1
    16    22    23    1
    17    23    24    1
    18    24    25    1
    19    25    26    1
    20     6     7   ar
    21     7     8   ar
    22     8     9   ar
    23     9    10   ar
    24    14    15   ar
    25    15    16   ar
    26    16    11   ar
    27    10     1   ar
    28     9     4   ar
    29    25    21    1
@<TRIPOS>MOLECULE
*****
 26 29 0 0 0
SMALL
GASTEIGER

@<TRIPOS>ATOM
      1 C         141.9124  138.2931  159.8723 C.ar    1  UNL1        0.0843
      2 C         143.1809  139.0670  160.0772 C.ar    1  UNL1        0.0192
      3 C         143.7179  139.2737  161.4624 C.ar    1  UNL1        0.0030
      4 C         142.9863  138.7066  162.6428 C.ar    1  UNL1        0.0174
      5 C         143.5234  138.9133  164.0280 C.ar    1  UNL1       -0.0027
      6 C         142.7918  138.3462  165.2084 C.ar    1  UNL1       -0.0207
      7 C         141.5233  137.5723  165.0035 C.ar    1  UNL1       -0.0027
      8 C         140.9863  137.3656  163.6183 C.ar    1  UNL1        0.0188
      9 C         141.7178  137.9327  162.4379 C.ar    1  UNL1        0.0812
     10 N         141.1808  137.7260  161.0527 N.ar    1  UNL1       -0.2453
     11 C         140.3013  137.6729  155.7166 C.ar    1  UNL1        0.3201
     12 N         139.3729  138.0523  156.8320 N.ar    1  UNL1       -0.1926
     13 C         139.9099  138.2591  158.2172 C.ar    1  UNL1        0.1066
     14 C         141.3753  138.0864  158.4871 C.ar    1  UNL1        0.0562
     15 C         142.3037  137.7070  157.3716 C.ar    1  UNL1        0.1066
     16 N         141.7667  137.5002  155.9864 N.ar    1  UNL1       -0.1926
     17 C         138.2842  137.3721  154.1071 C.3     1  UNL1        0.2559
     18 O         139.7643  137.4662  154.3314 O.3     1  UNL1       -0.4426
     19 C         143.3288  138.5529  166.5936 C.3     1  UNL1        0.0437
     20 C         142.6982  139.5696  167.4985 C.3     1  UNL1        0.0768
     21 N         141.9062  140.7027  166.9167 N.3     1  UNL1       -0.2737
     22 C         142.4712  141.9343  166.2731 C.3     1  UNL1        0.0721
     23 C         141.3243  142.7960  165.8350 C.3     1  UNL1        0.0187
     24 C         140.0505  142.0971  166.2078 C.3     1  UNL1        0.0174
     25 C         140.4101  140.8034  166.8763 C.3     1  UNL1        0.0576
     26 C         139.4434  139.7885  167.4106 C.3     1  UNL1        0.0173
@<TRIPOS>BOND
     1    17    18    1
     2    18    11    1
     3    11    12   ar
     4    12    13   ar
     5    13    14   ar
     6    14     1    1
     7     1     2   ar
     8     2     3   ar
     9     3     4   ar
    10     4     5   ar
    11     5     6   ar
    12     6    19    1
    13    19    20    1
    14    20    21    1
    15    21    22    1
    16    22    23    1
    17    23    24    1
    18    24    25    1
    19    25    26    1
    20     6     7   ar
    21     7     8   ar
    22     8     9   ar
    23     9    10   ar
    24    14    15   ar
    25    15    16   ar
    26    16    11   ar
    27    10     1   ar
    28     9     4   ar
    29    25    21    1
