@<TRIPOS>MOLECULE
*****
 34 38 0 0 0
SMALL
GASTEIGER

@<TRIPOS>ATOM
      1 C         141.7357  139.3882  161.2894 C.2     1  UNL1        0.0033
      2 C         140.7572  138.9879  162.3536 C.2     1  UNL1        0.0641
      3 C         139.6779  137.9933  162.0442 C.3     1  UNL1        0.0383
      4 C         138.6995  137.5930  163.1084 C.3     1  UNL1        0.0557
      5 C         138.8005  138.1873  164.4819 C.3     1  UNL1        0.2028
      6 N         139.8798  139.1819  164.7913 N.pl3   1  UNL1       -0.1873
      7 C         140.8582  139.5822  163.7271 C.2     1  UNL1        0.3653
      8 N         141.9376  140.5769  164.0365 N.2     1  UNL1        0.1549
      9 O         142.0385  141.1712  165.4100 O.2     1  UNL1       -0.2751
     10 C         141.0600  140.7709  166.4742 C.3     1  UNL1        0.2886
     11 C         139.9807  139.7762  166.1648 C.3     1  UNL1        0.2096
     12 C         139.0023  139.3759  167.2290 C.3     1  UNL1        0.0552
     13 C         141.1609  141.3652  167.8477 C.ar    1  UNL1        0.0309
     14 C         140.5988  142.7294  168.1178 C.ar    1  UNL1        0.0293
     15 C         140.6997  143.3237  169.4913 C.ar    1  UNL1        0.1422
     16 F         140.1376  144.6879  169.7614 F       1  UNL1       -0.2041
     17 C         141.3628  142.5538  170.5948 C.ar    1  UNL1        0.0592
     18 C         141.9249  141.1896  170.3247 C.ar    1  UNL1        0.1422
     19 F         142.5879  140.4197  171.4282 F       1  UNL1       -0.2041
     20 C         141.8240  140.5952  168.9512 C.ar    1  UNL1        0.0293
     21 C         140.2943  138.4085  157.7240 C.ar    1  UNL1        0.1547
     22 C         140.3952  139.0028  159.0975 C.ar    1  UNL1        0.0384
     23 C         141.6348  138.7939  159.9159 C.ar    1  UNL1        0.0030
     24 C         142.7735  137.9906  159.3607 C.ar    1  UNL1        0.0017
     25 C         142.6726  137.3963  157.9872 C.ar    1  UNL1        0.0206
     26 C         141.4330  137.6052  157.1688 C.ar    1  UNL1        0.0994
     27 N         141.3320  137.0109  155.7953 N.ar    1  UNL1       -0.2839
     28 C         141.1991  137.7752  154.5115 C.ar    1  UNL1        0.1826
     29 N         141.1312  136.7846  153.3871 N.ar    1  UNL1       -0.2280
     30 C         141.2222  135.4081  153.9761 C.ar    1  UNL1        0.0786
     31 C         141.1941  134.1181  153.2111 C.3     1  UNL1        0.0538
     32 C         141.3463  135.5480  155.4644 C.ar    1  UNL1        0.0963
     33 C         138.7230  139.9834  156.3821 C.3     1  UNL1        0.2525
     34 O         139.0547  138.6175  156.9056 O.3     1  UNL1       -0.4700
@<TRIPOS>BOND
     1    33    34    1
     2    34    21    1
     3    21    22   ar
     4    22    23   ar
     5    23     1    1
     6     1     2    2
     7     2     3    1
     8     3     4    1
     9     4     5    1
    10     5     6    1
    11     6     7    1
    12     7     8    2
    13     8     9    1
    14     9    10    1
    15    10    13    1
    16    13    14   ar
    17    14    15   ar
    18    15    16    1
    19    15    17   ar
    20    17    18   ar
    21    18    19    1
    22    18    20   ar
    23    10    11    1
    24    11    12    1
    25    23    24   ar
    26    24    25   ar
    27    25    26   ar
    28    26    27    1
    29    27    28   ar
    30    28    29   ar
    31    29    30   ar
    32    30    31    1
    33    30    32   ar
    34    26    21   ar
    35    32    27   ar
    36     7     2    1
    37    20    13   ar
    38    11     6    1
@<TRIPOS>MOLECULE
*****
 34 38 0 0 0
SMALL
GASTEIGER

@<TRIPOS>ATOM
      1 C         141.9491  139.5879  160.8686 C.2     1  UNL1        0.0033
      2 C         140.9194  139.2002  161.8882 C.2     1  UNL1        0.0641
      3 C         139.7808  138.3038  161.5009 C.3     1  UNL1        0.0383
      4 C         138.7511  137.9162  162.5204 C.3     1  UNL1        0.0557
      5 C         138.8601  138.4249  163.9273 C.3     1  UNL1        0.2028
      6 N         139.9987  139.3212  164.3147 N.pl3   1  UNL1       -0.1873
      7 C         141.0283  139.7089  163.2951 C.2     1  UNL1        0.3653
      8 N         142.1670  140.6053  163.6824 N.2     1  UNL1        0.1549
      9 O         142.2760  141.1140  165.0893 O.2     1  UNL1       -0.2751
     10 C         141.2463  140.7263  166.1089 C.3     1  UNL1        0.2886
     11 C         140.1077  139.8299  165.7216 C.3     1  UNL1        0.2096
     12 C         139.0780  139.4423  166.7411 C.3     1  UNL1        0.0552
     13 C         141.3552  141.2350  167.5158 C.ar    1  UNL1        0.0309
     14 C         140.7370  142.5500  167.8878 C.ar    1  UNL1        0.0293
     15 C         140.8460  143.0587  169.2947 C.ar    1  UNL1        0.1422
     16 F         140.2278  144.3738  169.6667 F       1  UNL1       -0.2041
     17 C         141.5732  142.2524  170.3296 C.ar    1  UNL1        0.0592
     18 C         142.1914  140.9373  169.9576 C.ar    1  UNL1        0.1422
     19 F         142.9186  140.1310  170.9924 F       1  UNL1       -0.2041
     20 C         142.0825  140.4286  168.5507 C.ar    1  UNL1        0.0293
     21 C         142.6486  137.4843  157.5769 C.ar    1  UNL1        0.1547
     22 C         142.7575  137.9930  158.9838 C.ar    1  UNL1        0.0384
     23 C         141.8401  139.0792  159.4618 C.ar    1  UNL1        0.0030
     24 C         140.8137  139.6567  158.5328 C.ar    1  UNL1        0.0017
     25 C         140.7047  139.1480  157.1259 C.ar    1  UNL1        0.0206
     26 C         141.6222  138.0618  156.6480 C.ar    1  UNL1        0.0994
     27 N         141.5132  137.5531  155.2411 N.ar    1  UNL1       -0.2839
     28 C         142.4739  137.8359  154.1243 C.ar    1  UNL1        0.1826
     29 N         141.9789  137.1299  152.8970 N.ar    1  UNL1       -0.2280
     30 C         140.7122  136.4106  153.2551 C.ar    1  UNL1        0.0786
     31 C         139.8795  135.5763  152.3275 C.3     1  UNL1        0.0538
     32 C         140.4245  136.6722  154.7039 C.ar    1  UNL1        0.0963
     33 C         143.0958  134.9738  157.0792 C.3     1  UNL1        0.2525
     34 O         143.5661  136.3980  157.0990 O.3     1  UNL1       -0.4700
@<TRIPOS>BOND
     1    33    34    1
     2    34    21    1
     3    21    22   ar
     4    22    23   ar
     5    23     1    1
     6     1     2    2
     7     2     3    1
     8     3     4    1
     9     4     5    1
    10     5     6    1
    11     6     7    1
    12     7     8    2
    13     8     9    1
    14     9    10    1
    15    10    13    1
    16    13    14   ar
    17    14    15   ar
    18    15    16    1
    19    15    17   ar
    20    17    18   ar
    21    18    19    1
    22    18    20   ar
    23    10    11    1
    24    11    12    1
    25    23    24   ar
    26    24    25   ar
    27    25    26   ar
    28    26    27    1
    29    27    28   ar
    30    28    29   ar
    31    29    30   ar
    32    30    31    1
    33    30    32   ar
    34    26    21   ar
    35    32    27   ar
    36     7     2    1
    37    20    13   ar
    38    11     6    1
@<TRIPOS>MOLECULE
*****
 34 38 0 0 0
SMALL
GASTEIGER

@<TRIPOS>ATOM
      1 C         141.1878  144.4036  162.4792 C.2     1  UNL1        0.0033
      2 C         140.3715  143.8183  161.3650 C.2     1  UNL1        0.0641
      3 C         139.3687  142.7413  161.6557 C.3     1  UNL1        0.0383
      4 C         138.5525  142.1561  160.5416 C.3     1  UNL1        0.0557
      5 C         138.7390  142.6478  159.1369 C.3     1  UNL1        0.2028
      6 N         139.7418  143.7248  158.8462 N.pl3   1  UNL1       -0.1873
      7 C         140.5580  144.3100  159.9603 C.2     1  UNL1        0.3653
      8 N         141.5608  145.3871  159.6696 N.2     1  UNL1        0.1549
      9 O         141.7474  145.8788  158.2648 O.2     1  UNL1       -0.2751
     10 C         140.9311  145.2935  157.1507 C.3     1  UNL1        0.2886
     11 C         139.9283  144.2165  157.4414 C.3     1  UNL1        0.2096
     12 C         139.1121  143.6313  156.3273 C.3     1  UNL1        0.0552
     13 C         141.1176  145.7853  155.7459 C.ar    1  UNL1        0.0309
     14 C         142.1274  145.1311  154.8502 C.ar    1  UNL1        0.0293
     15 C         142.3139  145.6228  153.4454 C.ar    1  UNL1        0.1422
     16 F         143.3236  144.9686  152.5496 F       1  UNL1       -0.2041
     17 C         141.4907  146.7687  152.9364 C.ar    1  UNL1        0.0592
     18 C         140.4809  147.4230  153.8322 C.ar    1  UNL1        0.1422
     19 F         139.6578  148.5690  153.3231 F       1  UNL1       -0.2041
     20 C         140.2944  146.9313  155.2369 C.ar    1  UNL1        0.0293
     21 C         141.8526  142.5397  165.9192 C.ar    1  UNL1        0.1547
     22 C         142.0392  143.0315  164.5144 C.ar    1  UNL1        0.0384
     23 C         141.0012  143.9119  163.8839 C.ar    1  UNL1        0.0030
     24 C         139.7767  144.3005  164.6582 C.ar    1  UNL1        0.0017
     25 C         139.5901  143.8088  166.0630 C.ar    1  UNL1        0.0206
     26 C         140.6281  142.9284  166.6935 C.ar    1  UNL1        0.0994
     27 N         140.4416  142.4366  168.0983 N.ar    1  UNL1       -0.2839
     28 C         140.5855  143.2568  169.3459 C.ar    1  UNL1        0.1826
     29 N         140.3112  142.3654  170.5208 N.ar    1  UNL1       -0.2280
     30 C         139.9978  140.9944  169.9992 C.ar    1  UNL1        0.0786
     31 C         139.6627  139.7907  170.8291 C.3     1  UNL1        0.0538
     32 C         140.0784  141.0384  168.5020 C.ar    1  UNL1        0.0963
     33 C         142.9270  140.1945  166.2287 C.3     1  UNL1        0.2525
     34 O         142.8906  141.6593  166.5497 O.3     1  UNL1       -0.4700
@<TRIPOS>BOND
     1    33    34    1
     2    34    21    1
     3    21    22   ar
     4    22    23   ar
     5    23     1    1
     6     1     2    2
     7     2     3    1
     8     3     4    1
     9     4     5    1
    10     5     6    1
    11     6     7    1
    12     7     8    2
    13     8     9    1
    14     9    10    1
    15    10    13    1
    16    13    14   ar
    17    14    15   ar
    18    15    16    1
    19    15    17   ar
    20    17    18   ar
    21    18    19    1
    22    18    20   ar
    23    10    11    1
    24    11    12    1
    25    23    24   ar
    26    24    25   ar
    27    25    26   ar
    28    26    27    1
    29    27    28   ar
    30    28    29   ar
    31    29    30   ar
    32    30    31    1
    33    30    32   ar
    34    26    21   ar
    35    32    27   ar
    36     7     2    1
    37    20    13   ar
    38    11     6    1
@<TRIPOS>MOLECULE
*****
 34 38 0 0 0
SMALL
GASTEIGER

@<TRIPOS>ATOM
      1 C         140.8029  140.6834  160.7905 C.2     1  UNL1        0.0033
      2 C         140.1880  140.0543  162.0056 C.2     1  UNL1        0.0641
      3 C         139.2406  138.9012  161.8550 C.3     1  UNL1        0.0383
      4 C         138.6257  138.2722  163.0700 C.3     1  UNL1        0.0557
      5 C         138.9582  138.7963  164.4355 C.3     1  UNL1        0.2028
      6 N         139.9056  139.9494  164.5861 N.pl3   1  UNL1       -0.1873
      7 C         140.5205  140.5784  163.3711 C.2     1  UNL1        0.3653
      8 N         141.4680  141.7316  163.5216 N.2     1  UNL1        0.1549
      9 O         141.8005  142.2557  164.8872 O.2     1  UNL1       -0.2751
     10 C         141.1856  141.6267  166.1022 C.3     1  UNL1        0.2886
     11 C         140.2382  140.4736  165.9516 C.3     1  UNL1        0.2096
     12 C         139.6233  139.8446  167.1666 C.3     1  UNL1        0.0552
     13 C         141.5181  142.1508  167.4677 C.ar    1  UNL1        0.0309
     14 C         142.8766  141.9061  168.0547 C.ar    1  UNL1        0.0293
     15 C         143.2092  142.4302  169.4202 C.ar    1  UNL1        0.1422
     16 F         144.5677  142.1855  170.0072 F       1  UNL1       -0.2041
     17 C         142.1832  143.1990  170.1988 C.ar    1  UNL1        0.0592
     18 C         140.8246  143.4438  169.6119 C.ar    1  UNL1        0.1422
     19 F         139.7986  144.2126  170.3905 F       1  UNL1       -0.2041
     20 C         140.4921  142.9196  168.2464 C.ar    1  UNL1        0.0293
     21 C         140.8229  138.4058  157.5406 C.ar    1  UNL1        0.1547
     22 C         141.1555  138.9299  158.9061 C.ar    1  UNL1        0.0384
     23 C         140.4703  140.1593  159.4250 C.ar    1  UNL1        0.0030
     24 C         139.4526  140.8646  158.5783 C.ar    1  UNL1        0.0017
     25 C         139.1201  140.3405  157.2127 C.ar    1  UNL1        0.0206
     26 C         139.8053  139.1110  156.6939 C.ar    1  UNL1        0.0994
     27 N         139.4727  138.5869  155.3283 N.ar    1  UNL1       -0.2839
     28 C         140.3688  138.6273  154.1261 C.ar    1  UNL1        0.1826
     29 N         139.6356  137.9957  152.9800 N.ar    1  UNL1       -0.2280
     30 C         138.2864  137.5650  153.4739 C.ar    1  UNL1        0.0786
     31 C         137.2242  136.8879  152.6595 C.3     1  UNL1        0.0538
     32 C         138.1857  137.9304  154.9252 C.ar    1  UNL1        0.0963
     33 C         142.9467  137.2403  156.6017 C.3     1  UNL1        0.2525
     34 O         141.5081  137.1764  157.0217 O.3     1  UNL1       -0.4700
@<TRIPOS>BOND
     1    33    34    1
     2    34    21    1
     3    21    22   ar
     4    22    23   ar
     5    23     1    1
     6     1     2    2
     7     2     3    1
     8     3     4    1
     9     4     5    1
    10     5     6    1
    11     6     7    1
    12     7     8    2
    13     8     9    1
    14     9    10    1
    15    10    13    1
    16    13    14   ar
    17    14    15   ar
    18    15    16    1
    19    15    17   ar
    20    17    18   ar
    21    18    19    1
    22    18    20   ar
    23    10    11    1
    24    11    12    1
    25    23    24   ar
    26    24    25   ar
    27    25    26   ar
    28    26    27    1
    29    27    28   ar
    30    28    29   ar
    31    29    30   ar
    32    30    31    1
    33    30    32   ar
    34    26    21   ar
    35    32    27   ar
    36     7     2    1
    37    20    13   ar
    38    11     6    1
@<TRIPOS>MOLECULE
*****
 34 38 0 0 0
SMALL
GASTEIGER

@<TRIPOS>ATOM
      1 C         140.3574  141.1873  160.7365 C.2     1  UNL1        0.0033
      2 C         139.9703  140.3711  161.9340 C.2     1  UNL1        0.0641
      3 C         139.2216  139.0838  161.7540 C.3     1  UNL1        0.0383
      4 C         138.8346  138.2676  162.9515 C.3     1  UNL1        0.0557
      5 C         139.1962  138.7387  164.3289 C.3     1  UNL1        0.2028
      6 N         139.9449  140.0260  164.5089 N.pl3   1  UNL1       -0.1873
      7 C         140.3319  140.8421  163.3114 C.2     1  UNL1        0.3653
      8 N         141.0806  142.1295  163.4914 N.2     1  UNL1        0.1549
      9 O         141.4422  142.6005  164.8688 O.2     1  UNL1       -0.2751
     10 C         141.0551  141.7843  166.0663 C.3     1  UNL1        0.2886
     11 C         140.3065  140.4970  165.8864 C.3     1  UNL1        0.2096
     12 C         139.9194  139.6808  167.0838 C.3     1  UNL1        0.0552
     13 C         141.4167  142.2553  167.4438 C.ar    1  UNL1        0.0309
     14 C         140.4102  142.9993  168.2703 C.ar    1  UNL1        0.0293
     15 C         140.7718  143.4704  169.6478 C.ar    1  UNL1        0.1422
     16 F         139.7652  144.2143  170.4743 F       1  UNL1       -0.2041
     17 C         142.1400  143.1975  170.1986 C.ar    1  UNL1        0.0592
     18 C         143.1466  142.4534  169.3721 C.ar    1  UNL1        0.1422
     19 F         144.5148  142.1805  169.9230 F       1  UNL1       -0.2041
     20 C         142.7850  141.9824  167.9946 C.ar    1  UNL1        0.0293
     21 C         138.2497  140.4719  157.4508 C.ar    1  UNL1        0.1547
     22 C         138.6113  140.9429  158.8283 C.ar    1  UNL1        0.0384
     23 C         139.9958  140.7163  159.3591 C.ar    1  UNL1        0.0030
     24 C         141.0188  140.0185  158.5124 C.ar    1  UNL1        0.0017
     25 C         140.6572  139.5474  157.1350 C.ar    1  UNL1        0.0206
     26 C         139.2726  139.7741  156.6042 C.ar    1  UNL1        0.0994
     27 N         138.9110  139.3031  155.2267 N.ar    1  UNL1       -0.2839
     28 C         139.1436  140.0534  153.9489 C.ar    1  UNL1        0.1826
     29 N         138.6296  139.2131  152.8177 N.ar    1  UNL1       -0.2280
     30 C         138.0794  137.9433  153.3964 C.ar    1  UNL1        0.0786
     31 C         137.4634  136.8158  152.6222 C.3     1  UNL1        0.0538
     32 C         138.2533  137.9989  154.8853 C.ar    1  UNL1        0.0963
     33 C         136.5675  141.9169  156.0972 C.3     1  UNL1        0.2525
     34 O         136.8652  140.6986  156.9200 O.3     1  UNL1       -0.4700
@<TRIPOS>BOND
     1    33    34    1
     2    34    21    1
     3    21    22   ar
     4    22    23   ar
     5    23     1    1
     6     1     2    2
     7     2     3    1
     8     3     4    1
     9     4     5    1
    10     5     6    1
    11     6     7    1
    12     7     8    2
    13     8     9    1
    14     9    10    1
    15    10    13    1
    16    13    14   ar
    17    14    15   ar
    18    15    16    1
    19    15    17   ar
    20    17    18   ar
    21    18    19    1
    22    18    20   ar
    23    10    11    1
    24    11    12    1
    25    23    24   ar
    26    24    25   ar
    27    25    26   ar
    28    26    27    1
    29    27    28   ar
    30    28    29   ar
    31    29    30   ar
    32    30    31    1
    33    30    32   ar
    34    26    21   ar
    35    32    27   ar
    36     7     2    1
    37    20    13   ar
    38    11     6    1
@<TRIPOS>MOLECULE
*****
 34 38 0 0 0
SMALL
GASTEIGER

@<TRIPOS>ATOM
      1 C         143.0543  142.3742  160.9186 C.2     1  UNL1        0.0033
      2 C         143.2411  141.2359  161.8776 C.2     1  UNL1        0.0641
      3 C         143.8032  139.9321  161.3936 C.3     1  UNL1        0.0383
      4 C         143.9900  138.7939  162.3525 C.3     1  UNL1        0.0557
      5 C         143.6146  138.9594  163.7953 C.3     1  UNL1        0.2028
      6 N         143.0525  140.2632  164.2793 N.pl3   1  UNL1       -0.1873
      7 C         142.8657  141.4014  163.3204 C.2     1  UNL1        0.3653
      8 N         142.3036  142.7052  163.8043 N.2     1  UNL1        0.1549
      9 O         141.9282  142.8708  165.2471 O.2     1  UNL1       -0.2751
     10 C         142.1150  141.7324  166.2060 C.3     1  UNL1        0.2886
     11 C         142.6771  140.4287  165.7221 C.3     1  UNL1        0.2096
     12 C         142.8639  139.2905  166.6810 C.3     1  UNL1        0.0552
     13 C         141.7396  141.8980  167.6488 C.ar    1  UNL1        0.0309
     14 C         140.3997  141.4296  168.1337 C.ar    1  UNL1        0.0293
     15 C         140.0243  141.5951  169.5765 C.ar    1  UNL1        0.1422
     16 F         138.6844  141.1267  170.0614 F       1  UNL1       -0.2041
     17 C         140.9889  142.2290  170.5344 C.ar    1  UNL1        0.0592
     18 C         142.3290  142.6974  170.0496 C.ar    1  UNL1        0.1422
     19 F         143.2935  143.3313  171.0075 F       1  UNL1       -0.2041
     20 C         142.7043  142.5319  168.6068 C.ar    1  UNL1        0.0293
     21 C         145.2164  142.2943  157.5917 C.ar    1  UNL1        0.1547
     22 C         144.8410  142.4599  159.0345 C.ar    1  UNL1        0.0384
     23 C         143.4296  142.2087  159.4758 C.ar    1  UNL1        0.0030
     24 C         142.3935  141.7919  158.4744 C.ar    1  UNL1        0.0017
     25 C         142.7689  141.6264  157.0315 C.ar    1  UNL1        0.0206
     26 C         144.1803  141.8776  156.5902 C.ar    1  UNL1        0.0994
     27 N         144.5557  141.7121  155.1474 N.ar    1  UNL1       -0.2839
     28 C         144.2863  142.6961  154.0478 C.ar    1  UNL1        0.1826
     29 N         144.8304  142.1257  152.7716 N.ar    1  UNL1       -0.2280
     30 C         145.4362  140.7891  153.0826 C.ar    1  UNL1        0.0786
     31 C         146.0959  139.8696  152.0981 C.3     1  UNL1        0.0538
     32 C         145.2664  140.5335  154.5508 C.ar    1  UNL1        0.0963
     33 C         147.5794  143.2692  158.0563 C.3     1  UNL1        0.2525
     34 O         146.6278  142.5456  157.1503 O.3     1  UNL1       -0.4700
@<TRIPOS>BOND
     1    33    34    1
     2    34    21    1
     3    21    22   ar
     4    22    23   ar
     5    23     1    1
     6     1     2    2
     7     2     3    1
     8     3     4    1
     9     4     5    1
    10     5     6    1
    11     6     7    1
    12     7     8    2
    13     8     9    1
    14     9    10    1
    15    10    13    1
    16    13    14   ar
    17    14    15   ar
    18    15    16    1
    19    15    17   ar
    20    17    18   ar
    21    18    19    1
    22    18    20   ar
    23    10    11    1
    24    11    12    1
    25    23    24   ar
    26    24    25   ar
    27    25    26   ar
    28    26    27    1
    29    27    28   ar
    30    28    29   ar
    31    29    30   ar
    32    30    31    1
    33    30    32   ar
    34    26    21   ar
    35    32    27   ar
    36     7     2    1
    37    20    13   ar
    38    11     6    1
@<TRIPOS>MOLECULE
*****
 34 38 0 0 0
SMALL
GASTEIGER

@<TRIPOS>ATOM
      1 C         141.4557  138.8566  161.0444 C.2     1  UNL1        0.0033
      2 C         142.0405  140.1947  161.3870 C.2     1  UNL1        0.0641
      3 C         142.5985  141.0690  160.3034 C.3     1  UNL1        0.0383
      4 C         143.1833  142.4071  160.6461 C.3     1  UNL1        0.0557
      5 C         143.2102  142.8709  162.0723 C.3     1  UNL1        0.2028
      6 N         142.6522  141.9966  163.1559 N.pl3   1  UNL1       -0.1873
      7 C         142.0674  140.6585  162.8133 C.2     1  UNL1        0.3653
      8 N         141.5094  139.7841  163.8969 N.2     1  UNL1        0.1549
      9 O         141.5363  140.2479  165.3231 O.2     1  UNL1       -0.2751
     10 C         142.1211  141.5861  165.6658 C.3     1  UNL1        0.2886
     11 C         142.6791  142.4604  164.5822 C.3     1  UNL1        0.2096
     12 C         143.2639  143.7985  164.9248 C.3     1  UNL1        0.0552
     13 C         142.1480  142.0499  167.0920 C.ar    1  UNL1        0.0309
     14 C         143.4352  142.0334  167.8619 C.ar    1  UNL1        0.0293
     15 C         143.4621  142.4972  169.2881 C.ar    1  UNL1        0.1422
     16 F         144.7493  142.4808  170.0580 F       1  UNL1       -0.2041
     17 C         142.2017  142.9775  169.9445 C.ar    1  UNL1        0.0592
     18 C         140.9144  142.9940  169.1746 C.ar    1  UNL1        0.1422
     19 F         139.6541  143.4743  169.8309 F       1  UNL1       -0.2041
     20 C         140.8876  142.5302  167.7483 C.ar    1  UNL1        0.0293
     21 C         140.1576  138.0980  157.3716 C.ar    1  UNL1        0.1547
     22 C         140.1845  138.5618  158.7978 C.ar    1  UNL1        0.0384
     23 C         141.4288  138.3928  159.6182 C.ar    1  UNL1        0.0030
     24 C         142.6464  137.7599  159.0123 C.ar    1  UNL1        0.0017
     25 C         142.6195  137.2961  157.5860 C.ar    1  UNL1        0.0206
     26 C         141.3751  137.4652  156.7657 C.ar    1  UNL1        0.0994
     27 N         141.3482  137.0014  155.3394 N.ar    1  UNL1       -0.2839
     28 C         141.7035  137.8254  154.1375 C.ar    1  UNL1        0.1826
     29 N         141.5363  136.9654  152.9199 N.ar    1  UNL1       -0.2280
     30 C         141.0776  135.6099  153.3694 C.ar    1  UNL1        0.0786
     31 C         140.7862  134.4379  152.4797 C.3     1  UNL1        0.0538
     32 C         140.9614  135.6321  154.8647 C.ar    1  UNL1        0.0963
     33 C         138.7105  139.5154  155.7447 C.3     1  UNL1        0.2525
     34 O         138.9132  138.2671  156.5513 O.3     1  UNL1       -0.4700
@<TRIPOS>BOND
     1    33    34    1
     2    34    21    1
     3    21    22   ar
     4    22    23   ar
     5    23     1    1
     6     1     2    2
     7     2     3    1
     8     3     4    1
     9     4     5    1
    10     5     6    1
    11     6     7    1
    12     7     8    2
    13     8     9    1
    14     9    10    1
    15    10    13    1
    16    13    14   ar
    17    14    15   ar
    18    15    16    1
    19    15    17   ar
    20    17    18   ar
    21    18    19    1
    22    18    20   ar
    23    10    11    1
    24    11    12    1
    25    23    24   ar
    26    24    25   ar
    27    25    26   ar
    28    26    27    1
    29    27    28   ar
    30    28    29   ar
    31    29    30   ar
    32    30    31    1
    33    30    32   ar
    34    26    21   ar
    35    32    27   ar
    36     7     2    1
    37    20    13   ar
    38    11     6    1
@<TRIPOS>MOLECULE
*****
 34 38 0 0 0
SMALL
GASTEIGER

@<TRIPOS>ATOM
      1 C         141.5329  138.8215  160.8980 C.2     1  UNL1        0.0033
      2 C         141.3399  140.2624  161.2679 C.2     1  UNL1        0.0641
      3 C         141.0149  141.2720  160.2072 C.3     1  UNL1        0.0383
      4 C         140.8220  142.7128  160.5771 C.3     1  UNL1        0.0557
      5 C         140.9539  143.1440  162.0077 C.3     1  UNL1        0.2028
      6 N         141.2789  142.1344  163.0684 N.pl3   1  UNL1       -0.1873
      7 C         141.4718  140.6936  162.6985 C.2     1  UNL1        0.3653
      8 N         141.7968  139.6839  163.7592 N.2     1  UNL1        0.1549
      9 O         141.9288  140.1151  165.1899 O.2     1  UNL1       -0.2751
     10 C         141.7358  141.5560  165.5597 C.3     1  UNL1        0.2886
     11 C         141.4108  142.5656  164.4990 C.3     1  UNL1        0.2096
     12 C         141.2179  144.0063  164.8690 C.3     1  UNL1        0.0552
     13 C         141.8677  141.9872  166.9904 C.ar    1  UNL1        0.0309
     14 C         140.6435  142.3310  167.7860 C.ar    1  UNL1        0.0293
     15 C         140.7755  142.7622  169.2166 C.ar    1  UNL1        0.1422
     16 F         139.5513  143.1060  170.0123 F       1  UNL1       -0.2041
     17 C         142.1316  142.8496  169.8516 C.ar    1  UNL1        0.0592
     18 C         143.3559  142.5058  169.0559 C.ar    1  UNL1        0.1422
     19 F         144.7121  142.5932  169.6909 F       1  UNL1       -0.2041
     20 C         143.2240  142.0746  167.6253 C.ar    1  UNL1        0.0293
     21 C         142.4931  137.6153  157.2411 C.ar    1  UNL1        0.1547
     22 C         142.6251  138.0465  158.6717 C.ar    1  UNL1        0.0384
     23 C         141.4009  138.3903  159.4674 C.ar    1  UNL1        0.0030
     24 C         140.0447  138.3030  158.8324 C.ar    1  UNL1        0.0017
     25 C         139.9127  137.8718  157.4018 C.ar    1  UNL1        0.0206
     26 C         141.1370  137.5280  156.6062 C.ar    1  UNL1        0.0994
     27 N         141.0050  137.0968  155.1756 N.ar    1  UNL1       -0.2839
     28 C         140.8208  138.0034  153.9948 C.ar    1  UNL1        0.1826
     29 N         140.7360  137.1502  152.7640 N.ar    1  UNL1       -0.2280
     30 C         140.8678  135.7162  153.1841 C.ar    1  UNL1        0.0786
     31 C         140.8386  134.5245  152.2736 C.3     1  UNL1        0.0538
     32 C         141.0341  135.6832  154.6745 C.ar    1  UNL1        0.0963
     33 C         144.2918  138.2693  155.4841 C.3     1  UNL1        0.2525
     34 O         143.7174  137.2714  156.4455 O.3     1  UNL1       -0.4700
@<TRIPOS>BOND
     1    33    34    1
     2    34    21    1
     3    21    22   ar
     4    22    23   ar
     5    23     1    1
     6     1     2    2
     7     2     3    1
     8     3     4    1
     9     4     5    1
    10     5     6    1
    11     6     7    1
    12     7     8    2
    13     8     9    1
    14     9    10    1
    15    10    13    1
    16    13    14   ar
    17    14    15   ar
    18    15    16    1
    19    15    17   ar
    20    17    18   ar
    21    18    19    1
    22    18    20   ar
    23    10    11    1
    24    11    12    1
    25    23    24   ar
    26    24    25   ar
    27    25    26   ar
    28    26    27    1
    29    27    28   ar
    30    28    29   ar
    31    29    30   ar
    32    30    31    1
    33    30    32   ar
    34    26    21   ar
    35    32    27   ar
    36     7     2    1
    37    20    13   ar
    38    11     6    1
@<TRIPOS>MOLECULE
*****
 34 38 0 0 0
SMALL
GASTEIGER

@<TRIPOS>ATOM
      1 C         142.6083  139.0573  162.0907 C.2     1  UNL1        0.0033
      2 C         141.4835  139.1431  161.1019 C.2     1  UNL1        0.0641
      3 C         140.2515  139.9317  161.4339 C.3     1  UNL1        0.0383
      4 C         139.1269  140.0175  160.4451 C.3     1  UNL1        0.0557
      5 C         139.2342  139.3147  159.1243 C.3     1  UNL1        0.2028
      6 N         140.4662  138.5261  158.7923 N.pl3   1  UNL1       -0.1873
      7 C         141.5908  138.4403  159.7811 C.2     1  UNL1        0.3653
      8 N         142.8229  137.6517  159.4490 N.2     1  UNL1        0.1549
      9 O         142.9302  136.9489  158.1282 O.2     1  UNL1       -0.2751
     10 C         141.8055  137.0347  157.1394 C.3     1  UNL1        0.2886
     11 C         140.5735  137.8233  157.4715 C.3     1  UNL1        0.2096
     12 C         139.4488  137.9091  156.4827 C.3     1  UNL1        0.0552
     13 C         141.9128  136.3319  155.8186 C.ar    1  UNL1        0.0309
     14 C         141.8986  134.8330  155.7632 C.ar    1  UNL1        0.0293
     15 C         142.0059  134.1302  154.4424 C.ar    1  UNL1        0.1422
     16 F         141.9917  132.6314  154.3871 F       1  UNL1       -0.2041
     17 C         142.1274  134.9263  153.1770 C.ar    1  UNL1        0.0592
     18 C         142.1417  136.4253  153.2323 C.ar    1  UNL1        0.1422
     19 F         142.2632  137.2214  151.9668 F       1  UNL1       -0.2041
     20 C         142.0343  137.1281  154.5531 C.ar    1  UNL1        0.0293
     21 C         142.7973  141.9026  164.8508 C.ar    1  UNL1        0.1547
     22 C         142.9046  141.1998  163.5299 C.ar    1  UNL1        0.0384
     23 C         142.5010  139.7601  163.4115 C.ar    1  UNL1        0.0030
     24 C         141.9900  139.0230  164.6139 C.ar    1  UNL1        0.0017
     25 C         141.8826  139.7258  165.9347 C.ar    1  UNL1        0.0206
     26 C         142.2863  141.1656  166.0531 C.ar    1  UNL1        0.0994
     27 N         142.1790  141.8684  167.3739 N.ar    1  UNL1       -0.2839
     28 C         143.3086  142.1392  168.3230 C.ar    1  UNL1        0.1826
     29 N         142.7510  142.8620  169.5132 N.ar    1  UNL1       -0.2280
     30 C         141.2767  143.0379  169.2998 C.ar    1  UNL1        0.0786
     31 C         140.3233  143.7099  170.2429 C.3     1  UNL1        0.0538
     32 C         140.9232  142.4239  167.9777 C.ar    1  UNL1        0.0963
     33 C         144.6295  143.6998  165.2545 C.3     1  UNL1        0.2525
     34 O         143.2010  143.3425  164.9692 O.3     1  UNL1       -0.4700
@<TRIPOS>BOND
     1    33    34    1
     2    34    21    1
     3    21    22   ar
     4    22    23   ar
     5    23     1    1
     6     1     2    2
     7     2     3    1
     8     3     4    1
     9     4     5    1
    10     5     6    1
    11     6     7    1
    12     7     8    2
    13     8     9    1
    14     9    10    1
    15    10    13    1
    16    13    14   ar
    17    14    15   ar
    18    15    16    1
    19    15    17   ar
    20    17    18   ar
    21    18    19    1
    22    18    20   ar
    23    10    11    1
    24    11    12    1
    25    23    24   ar
    26    24    25   ar
    27    25    26   ar
    28    26    27    1
    29    27    28   ar
    30    28    29   ar
    31    29    30   ar
    32    30    31    1
    33    30    32   ar
    34    26    21   ar
    35    32    27   ar
    36     7     2    1
    37    20    13   ar
    38    11     6    1
