@<TRIPOS>MOLECULE
*****
 34 37 0 0 0
SMALL
GASTEIGER

@<TRIPOS>ATOM
      1 C         140.0058  144.7308  162.0282 C.ar    1  UNL1        0.0591
      2 C         140.1537  145.2878  160.6434 C.ar    1  UNL1        0.0192
      3 C         141.3072  144.8633  159.7835 C.ar    1  UNL1        0.0560
      4 C         142.3127  143.8818  160.3085 C.ar    1  UNL1        0.0238
      5 C         142.1648  143.3248  161.6933 C.ar    1  UNL1        0.0856
      6 N         141.0113  143.7493  162.5532 N.ar    1  UNL1       -0.2495
      7 C         143.1703  142.3433  162.2183 C.ar    1  UNL1        0.0743
      8 C         144.6450  142.3602  161.9445 C.ar    1  UNL1        0.1251
      9 N         145.2638  141.2000  162.6662 N.ar    1  UNL1       -0.1620
     10 N         144.1715  140.4660  163.3862 N.ar    1  UNL1       -0.2106
     11 C         144.1879  139.2456  164.2580 C.ar    1  UNL1        0.1036
     12 C         142.9105  138.7317  164.8531 C.ar    1  UNL1        0.0404
     13 C         141.6166  139.4383  164.5763 C.ar    1  UNL1        0.0905
     14 N         141.6002  140.6588  163.7044 N.ar    1  UNL1       -0.2259
     15 C         142.8777  141.1726  163.1094 C.ar    1  UNL1        0.1667
     16 C         140.3392  138.9245  165.1714 C.ar    1  UNL1        0.0472
     17 C         139.7136  137.5890  164.8976 C.ar    1  UNL1        0.0085
     18 C         138.4508  137.4950  165.7017 C.ar    1  UNL1        0.0075
     19 C         138.2959  138.7725  166.4724 C.ar    1  UNL1        0.0355
     20 S         139.4630  139.6560  166.1446 S.2     1  UNL1       -0.0849
     21 C         141.4551  145.4203  158.3987 C.2     1  UNL1        0.2460
     22 O         142.8000  145.4317  157.7345 O.2     1  UNL1       -0.2701
     23 N         140.2582  145.9659  157.6779 N.am    1  UNL1       -0.2995
     24 H         139.3754  145.9584  158.1137 H       1  UNL1        0.1498
     25 C         140.4061  146.5229  156.2930 C.3     1  UNL1        0.1056
     26 C         139.1972  146.9978  155.5425 C.3     1  UNL1        0.0772
     27 C         138.1385  146.0188  155.1292 C.3     1  UNL1        0.0191
     28 N         139.0470  148.4517  155.2053 N.3     1  UNL1       -0.2724
     29 C         138.4673  149.3993  156.2132 C.3     1  UNL1        0.0721
     30 C         138.8292  150.8544  156.1693 C.3     1  UNL1        0.0188
     31 C         139.4766  148.9579  153.8602 C.3     1  UNL1        0.0721
     32 C         140.7000  148.3924  153.2017 C.3     1  UNL1        0.0188
     33 C         137.7856  144.1661  163.2535 C.3     1  UNL1        0.0067
     34 C         138.8524  145.1552  162.8881 C.3     1  UNL1        0.0458
@<TRIPOS>BOND
     1    33    34    1
     2    34     1    1
     3     1     2   ar
     4     2     3   ar
     5     3    21    1
     6    21    22    2
     7    21    23   am
     8    23    25    1
     9    25    26    1
    10    26    27    1
    11    26    28    1
    12    28    29    1
    13    29    30    1
    14    28    31    1
    15    31    32    1
    16     3     4   ar
    17     4     5   ar
    18     5     7    1
    19     7     8   ar
    20     8     9   ar
    21     9    10   ar
    22    10    11   ar
    23    11    12   ar
    24    12    13   ar
    25    13    16    1
    26    16    17   ar
    27    17    18   ar
    28    18    19   ar
    29    19    20   ar
    30    13    14   ar
    31    14    15   ar
    32     5     6   ar
    33     6     1   ar
    34    15     7   ar
    35    15    10   ar
    36    20    16   ar
    37    23    24    1
@<TRIPOS>MOLECULE
*****
 34 37 0 0 0
SMALL
GASTEIGER

@<TRIPOS>ATOM
      1 C         143.7158  142.2144  162.1399 C.ar    1  UNL1        0.0591
      2 C         143.2362  143.2576  161.1748 C.ar    1  UNL1        0.0192
      3 C         141.7655  143.4714  160.9711 C.ar    1  UNL1        0.0560
      4 C         140.7745  142.6419  161.7327 C.ar    1  UNL1        0.0238
      5 C         141.2541  141.5987  162.6979 C.ar    1  UNL1        0.0856
      6 N         142.7249  141.3849  162.9015 N.ar    1  UNL1       -0.2495
      7 C         140.2631  140.7693  163.4594 C.ar    1  UNL1        0.0743
      8 C         139.1721  139.9304  162.8627 C.ar    1  UNL1        0.1251
      9 N         138.4239  139.2757  163.9858 N.ar    1  UNL1       -0.1620
     10 N         139.0525  139.7100  165.2767 N.ar    1  UNL1       -0.2106
     11 C         138.7366  139.3841  166.7064 C.ar    1  UNL1        0.1036
     12 C         139.5575  139.9813  167.8108 C.ar    1  UNL1        0.0404
     13 C         140.6942  140.9043  167.4854 C.ar    1  UNL1        0.0905
     14 N         141.0101  141.2302  166.0557 N.ar    1  UNL1       -0.2259
     15 C         140.1892  140.6330  164.9514 C.ar    1  UNL1        0.1667
     16 C         141.5151  141.5015  168.5898 C.ar    1  UNL1        0.0472
     17 C         142.9460  141.9393  168.4870 C.ar    1  UNL1        0.0085
     18 C         143.3645  142.4741  169.8244 C.ar    1  UNL1        0.0075
     19 C         142.1920  142.3668  170.7539 C.ar    1  UNL1        0.0355
     20 S         141.0490  141.7658  169.9908 S.2     1  UNL1       -0.0849
     21 C         141.2859  144.5146  160.0060 C.2     1  UNL1        0.2460
     22 O         139.9255  145.1236  160.1747 O.2     1  UNL1       -0.2701
     23 N         142.1665  144.9489  158.8720 N.am    1  UNL1       -0.2995
     24 H         143.0593  144.5491  158.7613 H       1  UNL1        0.1498
     25 C         141.6868  145.9921  157.9069 C.3     1  UNL1        0.1056
     26 C         141.2241  145.5908  156.5375 C.3     1  UNL1        0.0772
     27 C         142.2165  145.1058  155.5227 C.3     1  UNL1        0.0191
     28 N         139.7690  145.6747  156.1830 N.3     1  UNL1       -0.2724
     29 C         139.1442  147.0064  155.8897 C.3     1  UNL1        0.0721
     30 C         139.5495  147.7716  154.6648 C.3     1  UNL1        0.0188
     31 C         138.9389  144.4269  156.1218 C.3     1  UNL1        0.0721
     32 C         139.2458  143.2764  157.0339 C.3     1  UNL1        0.0188
     33 C         145.7152  141.6774  163.7096 C.3     1  UNL1        0.0067
     34 C         145.1864  142.0005  162.3436 C.3     1  UNL1        0.0458
@<TRIPOS>BOND
     1    33    34    1
     2    34     1    1
     3     1     2   ar
     4     2     3   ar
     5     3    21    1
     6    21    22    2
     7    21    23   am
     8    23    25    1
     9    25    26    1
    10    26    27    1
    11    26    28    1
    12    28    29    1
    13    29    30    1
    14    28    31    1
    15    31    32    1
    16     3     4   ar
    17     4     5   ar
    18     5     7    1
    19     7     8   ar
    20     8     9   ar
    21     9    10   ar
    22    10    11   ar
    23    11    12   ar
    24    12    13   ar
    25    13    16    1
    26    16    17   ar
    27    17    18   ar
    28    18    19   ar
    29    19    20   ar
    30    13    14   ar
    31    14    15   ar
    32     5     6   ar
    33     6     1   ar
    34    15     7   ar
    35    15    10   ar
    36    20    16   ar
    37    23    24    1
@<TRIPOS>MOLECULE
*****
 34 37 0 0 0
SMALL
GASTEIGER

@<TRIPOS>ATOM
      1 C         142.7015  144.0108  163.5479 C.ar    1  UNL1        0.0591
      2 C         142.4051  144.7744  162.2913 C.ar    1  UNL1        0.0192
      3 C         141.2088  144.4160  161.4604 C.ar    1  UNL1        0.0560
      4 C         140.3089  143.2940  161.8862 C.ar    1  UNL1        0.0238
      5 C         140.6052  142.5304  163.1427 C.ar    1  UNL1        0.0856
      6 N         141.8016  142.8888  163.9736 N.ar    1  UNL1       -0.2495
      7 C         139.7053  141.4083  163.5684 C.ar    1  UNL1        0.0743
      8 C         138.8148  140.6028  162.6694 C.ar    1  UNL1        0.1251
      9 N         138.0971  139.5915  163.5132 N.ar    1  UNL1       -0.1620
     10 N         138.5440  139.7720  164.9337 N.ar    1  UNL1       -0.2106
     11 C         138.1743  139.0589  166.2005 C.ar    1  UNL1        0.1036
     12 C         138.7986  139.4687  167.5014 C.ar    1  UNL1        0.0404
     13 C         139.7925  140.5916  167.5355 C.ar    1  UNL1        0.0905
     14 N         140.1622  141.3047  166.2687 N.ar    1  UNL1       -0.2259
     15 C         139.5380  140.8949  164.9678 C.ar    1  UNL1        0.1667
     16 C         140.4168  141.0014  168.8364 C.ar    1  UNL1        0.0472
     17 C         139.6925  141.5640  170.0234 C.ar    1  UNL1        0.0085
     18 C         140.7030  141.8309  171.0993 C.ar    1  UNL1        0.0075
     19 C         142.0519  141.4332  170.5773 C.ar    1  UNL1        0.0355
     20 S         141.8750  140.9206  169.1788 S.2     1  UNL1       -0.0849
     21 C         140.9124  145.1796  160.2039 C.2     1  UNL1        0.2460
     22 O         139.6371  145.9601  160.0837 O.2     1  UNL1       -0.2701
     23 N         141.8912  145.1628  159.0674 N.am    1  UNL1       -0.2995
     24 H         142.7283  144.6506  159.1463 H       1  UNL1        0.1498
     25 C         141.5948  145.9265  157.8108 C.3     1  UNL1        0.1056
     26 C         141.1665  145.1960  156.5726 C.3     1  UNL1        0.0772
     27 C         142.1973  144.6442  155.6330 C.3     1  UNL1        0.0191
     28 N         139.7074  145.0173  156.2741 N.3     1  UNL1       -0.2724
     29 C         139.0346  143.7112  156.5763 C.3     1  UNL1        0.0721
     30 C         139.3496  142.9820  157.8488 C.3     1  UNL1        0.0188
     31 C         138.9211  146.1447  155.6736 C.3     1  UNL1        0.0721
     32 C         139.0654  147.5342  156.2199 C.3     1  UNL1        0.0188
     33 C         144.4922  143.3574  165.3131 C.3     1  UNL1        0.0067
     34 C         143.8978  144.3692  164.3788 C.3     1  UNL1        0.0458
@<TRIPOS>BOND
     1    33    34    1
     2    34     1    1
     3     1     2   ar
     4     2     3   ar
     5     3    21    1
     6    21    22    2
     7    21    23   am
     8    23    25    1
     9    25    26    1
    10    26    27    1
    11    26    28    1
    12    28    29    1
    13    29    30    1
    14    28    31    1
    15    31    32    1
    16     3     4   ar
    17     4     5   ar
    18     5     7    1
    19     7     8   ar
    20     8     9   ar
    21     9    10   ar
    22    10    11   ar
    23    11    12   ar
    24    12    13   ar
    25    13    16    1
    26    16    17   ar
    27    17    18   ar
    28    18    19   ar
    29    19    20   ar
    30    13    14   ar
    31    14    15   ar
    32     5     6   ar
    33     6     1   ar
    34    15     7   ar
    35    15    10   ar
    36    20    16   ar
    37    23    24    1
@<TRIPOS>MOLECULE
*****
 34 37 0 0 0
SMALL
GASTEIGER

@<TRIPOS>ATOM
      1 C         144.2053  140.4441  162.8735 C.ar    1  UNL1        0.0591
      2 C         144.3089  140.0719  161.4241 C.ar    1  UNL1        0.0192
      3 C         143.2151  139.2779  160.7737 C.ar    1  UNL1        0.0560
      4 C         142.0177  138.8561  161.5727 C.ar    1  UNL1        0.0238
      5 C         141.9140  139.2282  163.0220 C.ar    1  UNL1        0.0856
      6 N         143.0079  140.0223  163.6725 N.ar    1  UNL1       -0.2495
      7 C         140.7166  138.8064  163.8210 C.ar    1  UNL1        0.0743
      8 C         139.6667  137.8276  163.3858 C.ar    1  UNL1        0.1251
      9 N         138.6601  137.7056  164.4912 N.ar    1  UNL1       -0.1620
     10 N         139.0880  138.6091  165.6095 N.ar    1  UNL1       -0.2106
     11 C         138.4845  138.9001  166.9515 C.ar    1  UNL1        0.1036
     12 C         139.1520  139.8716  167.8793 C.ar    1  UNL1        0.0404
     13 C         140.4230  140.5519  167.4651 C.ar    1  UNL1        0.0905
     14 N         141.0265  140.2609  166.1231 N.ar    1  UNL1       -0.2259
     15 C         140.3590  139.2894  165.1953 C.ar    1  UNL1        0.1667
     16 C         141.0905  141.5234  168.3929 C.ar    1  UNL1        0.0472
     17 C         140.4319  142.6851  169.0758 C.ar    1  UNL1        0.0085
     18 C         141.4681  143.3834  169.9056 C.ar    1  UNL1        0.0075
     19 C         142.7673  142.6531  169.7355 C.ar    1  UNL1        0.0355
     20 S         142.5339  141.5036  168.8006 S.2     1  UNL1       -0.0849
     21 C         143.3186  138.9056  159.3243 C.2     1  UNL1        0.2460
     22 O         144.0773  139.7863  158.3762 O.2     1  UNL1       -0.2701
     23 N         142.6636  137.6528  158.8230 N.am    1  UNL1       -0.2995
     24 H         142.1657  137.0748  159.4453 H       1  UNL1        0.1498
     25 C         142.7672  137.2806  157.3737 C.3     1  UNL1        0.1056
     26 C         141.5599  136.7746  156.6411 C.3     1  UNL1        0.0772
     27 C         140.2499  137.4943  156.7671 C.3     1  UNL1        0.0191
     28 N         141.6627  135.5489  155.7826 N.3     1  UNL1       -0.2724
     29 C         141.0437  135.5362  154.4163 C.3     1  UNL1        0.0721
     30 C         141.8559  135.9392  153.2213 C.3     1  UNL1        0.0188
     31 C         142.3844  134.3359  156.2903 C.3     1  UNL1        0.0721
     32 C         143.7573  134.0118  155.7802 C.3     1  UNL1        0.0188
     33 C         144.9613  142.4453  164.3477 C.3     1  UNL1        0.0067
     34 C         145.2991  141.2381  163.5240 C.3     1  UNL1        0.0458
@<TRIPOS>BOND
     1    33    34    1
     2    34     1    1
     3     1     2   ar
     4     2     3   ar
     5     3    21    1
     6    21    22    2
     7    21    23   am
     8    23    25    1
     9    25    26    1
    10    26    27    1
    11    26    28    1
    12    28    29    1
    13    29    30    1
    14    28    31    1
    15    31    32    1
    16     3     4   ar
    17     4     5   ar
    18     5     7    1
    19     7     8   ar
    20     8     9   ar
    21     9    10   ar
    22    10    11   ar
    23    11    12   ar
    24    12    13   ar
    25    13    16    1
    26    16    17   ar
    27    17    18   ar
    28    18    19   ar
    29    19    20   ar
    30    13    14   ar
    31    14    15   ar
    32     5     6   ar
    33     6     1   ar
    34    15     7   ar
    35    15    10   ar
    36    20    16   ar
    37    23    24    1
@<TRIPOS>MOLECULE
*****
 34 37 0 0 0
SMALL
GASTEIGER

@<TRIPOS>ATOM
      1 C         144.0903  141.6916  163.3155 C.ar    1  UNL1        0.0591
      2 C         144.5027  141.7015  161.8733 C.ar    1  UNL1        0.0192
      3 C         143.7533  140.8717  160.8733 C.ar    1  UNL1        0.0560
      4 C         142.5916  140.0322  161.3155 C.ar    1  UNL1        0.0238
      5 C         142.1792  140.0223  162.7576 C.ar    1  UNL1        0.0856
      6 N         142.9286  140.8521  163.7577 N.ar    1  UNL1       -0.2495
      7 C         141.0175  139.1827  163.1999 C.ar    1  UNL1        0.0743
      8 C         140.3567  138.1001  162.3991 C.ar    1  UNL1        0.1251
      9 N         139.2434  137.5266  163.2248 N.ar    1  UNL1       -0.1620
     10 N         139.2162  138.2549  164.5358 N.ar    1  UNL1       -0.2106
     11 C         138.3346  138.1182  165.7417 C.ar    1  UNL1        0.1036
     12 C         138.5495  139.0051  166.9322 C.ar    1  UNL1        0.0404
     13 C         139.6459  140.0287  166.9168 C.ar    1  UNL1        0.0905
     14 N         140.5275  140.1653  165.7110 N.ar    1  UNL1       -0.2259
     15 C         140.3126  139.2784  164.5205 C.ar    1  UNL1        0.1667
     16 C         139.8608  140.9156  168.1073 C.ar    1  UNL1        0.0472
     17 C         139.3431  140.6712  169.4938 C.ar    1  UNL1        0.0085
     18 C         139.7934  141.8071  170.3637 C.ar    1  UNL1        0.0075
     19 C         140.5895  142.7536  169.5149 C.ar    1  UNL1        0.0355
     20 S         140.6311  142.2026  168.1204 S.2     1  UNL1       -0.0849
     21 C         144.1656  140.8816  159.4312 C.2     1  UNL1        0.2460
     22 O         144.0962  139.6200  158.6226 O.2     1  UNL1       -0.2701
     23 N         144.6473  142.1529  158.7974 N.am    1  UNL1       -0.2995
     24 H         144.6928  142.9809  159.3280 H       1  UNL1        0.1498
     25 C         145.0596  142.1627  157.3552 C.3     1  UNL1        0.1056
     26 C         146.4469  142.5880  156.9747 C.3     1  UNL1        0.0772
     27 C         147.3674  143.1591  158.0122 C.3     1  UNL1        0.0191
     28 N         146.9136  142.4420  155.5566 N.3     1  UNL1       -0.2724
     29 C         147.9402  141.4055  155.2079 C.3     1  UNL1        0.0721
     30 C         149.4003  141.7396  155.2877 C.3     1  UNL1        0.0188
     31 C         146.3536  143.3326  154.4873 C.3     1  UNL1        0.0721
     32 C         147.1698  144.4751  153.9594 C.3     1  UNL1        0.0188
     33 C         144.3718  143.9092  164.6394 C.3     1  UNL1        0.0067
     34 C         144.8397  142.5213  164.3155 C.3     1  UNL1        0.0458
@<TRIPOS>BOND
     1    33    34    1
     2    34     1    1
     3     1     2   ar
     4     2     3   ar
     5     3    21    1
     6    21    22    2
     7    21    23   am
     8    23    25    1
     9    25    26    1
    10    26    27    1
    11    26    28    1
    12    28    29    1
    13    29    30    1
    14    28    31    1
    15    31    32    1
    16     3     4   ar
    17     4     5   ar
    18     5     7    1
    19     7     8   ar
    20     8     9   ar
    21     9    10   ar
    22    10    11   ar
    23    11    12   ar
    24    12    13   ar
    25    13    16    1
    26    16    17   ar
    27    17    18   ar
    28    18    19   ar
    29    19    20   ar
    30    13    14   ar
    31    14    15   ar
    32     5     6   ar
    33     6     1   ar
    34    15     7   ar
    35    15    10   ar
    36    20    16   ar
    37    23    24    1
@<TRIPOS>MOLECULE
*****
 34 37 0 0 0
SMALL
GASTEIGER

@<TRIPOS>ATOM
      1 C         138.0868  139.7279  160.8109 C.ar    1  UNL1        0.0591
      2 C         138.7290  140.8710  161.5395 C.ar    1  UNL1        0.0192
      3 C         139.1483  142.0991  160.7872 C.ar    1  UNL1        0.0560
      4 C         138.9253  142.1841  159.3063 C.ar    1  UNL1        0.0238
      5 C         138.2831  141.0411  158.5777 C.ar    1  UNL1        0.0856
      6 N         137.8638  139.8129  159.3300 N.ar    1  UNL1       -0.2495
      7 C         138.0601  141.1262  157.0968 C.ar    1  UNL1        0.0743
      8 C         139.0908  141.4897  156.0694 C.ar    1  UNL1        0.1251
      9 N         138.4351  141.4509  154.7210 N.ar    1  UNL1       -0.1620
     10 N         136.9990  141.0633  154.9149 N.ar    1  UNL1       -0.2106
     11 C         135.8725  140.8671  153.9442 C.ar    1  UNL1        0.1036
     12 C         134.5142  140.4703  154.4418 C.ar    1  UNL1        0.0404
     13 C         134.2824  140.2696  155.9101 C.ar    1  UNL1        0.0905
     14 N         135.4090  140.4658  156.8808 N.ar    1  UNL1       -0.2259
     15 C         136.7673  140.8626  156.3833 C.ar    1  UNL1        0.1667
     16 C         132.9241  139.8728  156.4077 C.ar    1  UNL1        0.0472
     17 C         131.6414  140.6060  156.1488 C.ar    1  UNL1        0.0085
     18 C         130.5346  139.8595  156.8326 C.ar    1  UNL1        0.0075
     19 C         131.1333  138.6649  157.5142 C.ar    1  UNL1        0.0355
     20 S         132.6101  138.6731  157.2516 S.2     1  UNL1       -0.0849
     21 C         139.7905  143.2421  161.5159 C.2     1  UNL1        0.2460
     22 O         139.4155  144.6540  161.1755 O.2     1  UNL1       -0.2701
     23 N         140.8079  142.9734  162.5848 N.am    1  UNL1       -0.2995
     24 H         141.0541  142.0467  162.8082 H       1  UNL1        0.1498
     25 C         141.4501  144.1164  163.3134 C.3     1  UNL1        0.1056
     26 C         142.8422  143.9740  163.8539 C.3     1  UNL1        0.0772
     27 C         143.6421  145.1956  164.1972 C.3     1  UNL1        0.0191
     28 N         143.4343  142.6100  164.0510 N.3     1  UNL1       -0.2724
     29 C         144.4263  142.0730  163.0623 C.3     1  UNL1        0.0721
     30 C         145.7947  141.6633  163.5201 C.3     1  UNL1        0.0188
     31 C         143.0344  141.7829  165.2368 C.3     1  UNL1        0.0721
     32 C         142.2228  142.3959  166.3393 C.3     1  UNL1        0.0188
     33 C         138.5580  137.9323  162.6284 C.3     1  UNL1        0.0067
     34 C         137.6674  138.4998  161.5631 C.3     1  UNL1        0.0458
@<TRIPOS>BOND
     1    33    34    1
     2    34     1    1
     3     1     2   ar
     4     2     3   ar
     5     3    21    1
     6    21    22    2
     7    21    23   am
     8    23    25    1
     9    25    26    1
    10    26    27    1
    11    26    28    1
    12    28    29    1
    13    29    30    1
    14    28    31    1
    15    31    32    1
    16     3     4   ar
    17     4     5   ar
    18     5     7    1
    19     7     8   ar
    20     8     9   ar
    21     9    10   ar
    22    10    11   ar
    23    11    12   ar
    24    12    13   ar
    25    13    16    1
    26    16    17   ar
    27    17    18   ar
    28    18    19   ar
    29    19    20   ar
    30    13    14   ar
    31    14    15   ar
    32     5     6   ar
    33     6     1   ar
    34    15     7   ar
    35    15    10   ar
    36    20    16   ar
    37    23    24    1
@<TRIPOS>MOLECULE
*****
 34 37 0 0 0
SMALL
GASTEIGER

@<TRIPOS>ATOM
      1 C         144.2196  141.3596  163.2088 C.ar    1  UNL1        0.0591
      2 C         144.4891  141.3894  161.7335 C.ar    1  UNL1        0.0192
      3 C         143.5831  140.6547  160.7905 C.ar    1  UNL1        0.0560
      4 C         142.4074  139.8902  161.3228 C.ar    1  UNL1        0.0238
      5 C         142.1377  139.8603  162.7980 C.ar    1  UNL1        0.0856
      6 N         143.0439  140.5950  163.7411 N.ar    1  UNL1       -0.2495
      7 C         140.9621  139.0958  163.3303 C.ar    1  UNL1        0.0743
      8 C         140.2447  137.9808  162.6288 C.ar    1  UNL1        0.1251
      9 N         139.1366  137.5080  163.5224 N.ar    1  UNL1       -0.1620
     10 N         139.1692  138.3307  164.7762 N.ar    1  UNL1       -0.2106
     11 C         138.3174  138.3131  166.0107 C.ar    1  UNL1        0.1036
     12 C         138.5937  139.2768  167.1265 C.ar    1  UNL1        0.0404
     13 C         139.7219  140.2582  167.0078 C.ar    1  UNL1        0.0905
     14 N         140.5738  140.2758  165.7733 N.ar    1  UNL1       -0.2259
     15 C         140.2974  139.3121  164.6575 C.ar    1  UNL1        0.1667
     16 C         139.9982  141.2219  168.1235 C.ar    1  UNL1        0.0472
     17 C         140.5862  142.5942  167.9780 C.ar    1  UNL1        0.0085
     18 C         140.6865  143.2029  169.3451 C.ar    1  UNL1        0.0075
     19 C         140.1605  142.2069  170.3357 C.ar    1  UNL1        0.0355
     20 S         139.7351  140.9826  169.5807 S.2     1  UNL1       -0.0849
     21 C         143.8526  140.6845  159.3153 C.2     1  UNL1        0.2460
     22 O         144.5934  141.8407  158.7114 O.2     1  UNL1       -0.2701
     23 N         143.3815  139.5583  158.4438 N.am    1  UNL1       -0.2995
     24 H         142.8954  138.7994  158.8401 H       1  UNL1        0.1498
     25 C         143.6511  139.5881  156.9685 C.3     1  UNL1        0.1056
     26 C         143.2148  138.4432  156.1030 C.3     1  UNL1        0.0772
     27 C         143.6049  138.4064  154.6551 C.3     1  UNL1        0.0191
     28 N         142.3885  137.3351  156.6855 N.3     1  UNL1       -0.2724
     29 C         140.8945  137.4596  156.7339 C.3     1  UNL1        0.0721
     30 C         140.0570  136.8709  155.6375 C.3     1  UNL1        0.0188
     31 C         143.0562  136.1027  157.2196 C.3     1  UNL1        0.0721
     32 C         143.5380  135.0416  156.2751 C.3     1  UNL1        0.0188
     33 C         144.5853  143.2133  164.9919 C.3     1  UNL1        0.0067
     34 C         145.1256  142.0942  164.1518 C.3     1  UNL1        0.0458
@<TRIPOS>BOND
     1    33    34    1
     2    34     1    1
     3     1     2   ar
     4     2     3   ar
     5     3    21    1
     6    21    22    2
     7    21    23   am
     8    23    25    1
     9    25    26    1
    10    26    27    1
    11    26    28    1
    12    28    29    1
    13    29    30    1
    14    28    31    1
    15    31    32    1
    16     3     4   ar
    17     4     5   ar
    18     5     7    1
    19     7     8   ar
    20     8     9   ar
    21     9    10   ar
    22    10    11   ar
    23    11    12   ar
    24    12    13   ar
    25    13    16    1
    26    16    17   ar
    27    17    18   ar
    28    18    19   ar
    29    19    20   ar
    30    13    14   ar
    31    14    15   ar
    32     5     6   ar
    33     6     1   ar
    34    15     7   ar
    35    15    10   ar
    36    20    16   ar
    37    23    24    1
@<TRIPOS>MOLECULE
*****
 34 37 0 0 0
SMALL
GASTEIGER

@<TRIPOS>ATOM
      1 C         139.2252  143.9788  163.5389 C.ar    1  UNL1        0.0591
      2 C         139.4109  144.7560  162.2695 C.ar    1  UNL1        0.0192
      3 C         140.4798  144.3573  161.2955 C.ar    1  UNL1        0.0560
      4 C         141.3629  143.1814  161.5910 C.ar    1  UNL1        0.0238
      5 C         141.1773  142.4042  162.8604 C.ar    1  UNL1        0.0856
      6 N         140.1084  142.8029  163.8344 N.ar    1  UNL1       -0.2495
      7 C         142.0604  141.2283  163.1559 C.ar    1  UNL1        0.0743
      8 C         142.8991  140.4833  162.1601 C.ar    1  UNL1        0.1251
      9 N         143.6170  139.3855  162.8878 N.ar    1  UNL1       -0.1620
     10 N         143.2219  139.4521  164.3333 N.ar    1  UNL1       -0.2106
     11 C         143.6139  138.6227  165.5201 C.ar    1  UNL1        0.1036
     12 C         143.0438  138.9323  166.8727 C.ar    1  UNL1        0.0404
     13 C         142.0818  140.0712  167.0384 C.ar    1  UNL1        0.0905
     14 N         141.6899  140.9005  165.8515 N.ar    1  UNL1       -0.2259
     15 C         142.2599  140.5910  164.4990 C.ar    1  UNL1        0.1667
     16 C         141.5118  140.3807  168.3909 C.ar    1  UNL1        0.0472
     17 C         142.2633  140.9587  169.5532 C.ar    1  UNL1        0.0085
     18 C         141.3062  141.1018  170.6992 C.ar    1  UNL1        0.0075
     19 C         139.9630  140.6123  170.2451 C.ar    1  UNL1        0.0355
     20 S         140.0900  140.1667  168.8185 S.2     1  UNL1       -0.0849
     21 C         140.6655  145.1345  160.0261 C.2     1  UNL1        0.2460
     22 O         139.6454  146.1546  159.6152 O.2     1  UNL1       -0.2701
     23 N         141.8711  144.8915  159.1674 N.am    1  UNL1       -0.2995
     24 H         142.5406  144.2220  159.4371 H       1  UNL1        0.1498
     25 C         142.0568  145.6687  157.8980 C.3     1  UNL1        0.1056
     26 C         141.5927  145.0944  156.5922 C.3     1  UNL1        0.0772
     27 C         142.5606  144.9326  155.4578 C.3     1  UNL1        0.0191
     28 N         140.1607  144.6818  156.4211 N.3     1  UNL1       -0.2724
     29 C         139.1362  145.6896  155.9914 C.3     1  UNL1        0.0721
     30 C         139.5613  147.0790  155.6186 C.3     1  UNL1        0.0188
     31 C         139.7534  143.2615  156.6796 C.3     1  UNL1        0.0721
     32 C         138.8361  142.9405  157.8221 C.3     1  UNL1        0.0188
     33 C         138.5318  145.0014  165.8243 C.3     1  UNL1        0.0067
     34 C         138.1564  144.3775  164.5129 C.3     1  UNL1        0.0458
@<TRIPOS>BOND
     1    33    34    1
     2    34     1    1
     3     1     2   ar
     4     2     3   ar
     5     3    21    1
     6    21    22    2
     7    21    23   am
     8    23    25    1
     9    25    26    1
    10    26    27    1
    11    26    28    1
    12    28    29    1
    13    29    30    1
    14    28    31    1
    15    31    32    1
    16     3     4   ar
    17     4     5   ar
    18     5     7    1
    19     7     8   ar
    20     8     9   ar
    21     9    10   ar
    22    10    11   ar
    23    11    12   ar
    24    12    13   ar
    25    13    16    1
    26    16    17   ar
    27    17    18   ar
    28    18    19   ar
    29    19    20   ar
    30    13    14   ar
    31    14    15   ar
    32     5     6   ar
    33     6     1   ar
    34    15     7   ar
    35    15    10   ar
    36    20    16   ar
    37    23    24    1
@<TRIPOS>MOLECULE
*****
 34 37 0 0 0
SMALL
GASTEIGER

@<TRIPOS>ATOM
      1 C         142.7182  138.0726  157.8821 C.ar    1  UNL1        0.0591
      2 C         142.6287  137.6245  159.3109 C.ar    1  UNL1        0.0192
      3 C         142.4217  138.6331  160.4016 C.ar    1  UNL1        0.0560
      4 C         142.3041  140.0898  160.0637 C.ar    1  UNL1        0.0238
      5 C         142.3936  140.5380  158.6350 C.ar    1  UNL1        0.0856
      6 N         142.6007  139.5293  157.5442 N.ar    1  UNL1       -0.2495
      7 C         142.2761  141.9947  158.2971 C.ar    1  UNL1        0.0743
      8 C         142.8481  142.6674  157.0845 C.ar    1  UNL1        0.1251
      9 N         142.4914  144.1228  157.1504 N.ar    1  UNL1       -0.1620
     10 N         141.6989  144.3496  158.4036 N.ar    1  UNL1       -0.2106
     11 C         141.0813  145.5839  158.9910 C.ar    1  UNL1        0.1036
     12 C         140.3306  145.5029  160.2871 C.ar    1  UNL1        0.0404
     13 C         140.1974  144.1876  160.9958 C.ar    1  UNL1        0.0905
     14 N         140.8151  142.9534  160.4084 N.ar    1  UNL1       -0.2259
     15 C         141.5658  143.0343  159.1123 C.ar    1  UNL1        0.1667
     16 C         139.4467  144.1066  162.2919 C.ar    1  UNL1        0.0472
     17 C         139.7721  144.8594  163.5478 C.ar    1  UNL1        0.0085
     18 C         138.7653  144.4767  164.5917 C.ar    1  UNL1        0.0075
     19 C         137.8176  143.4873  163.9809 C.ar    1  UNL1        0.0355
     20 S         138.2387  143.2587  162.5596 S.2     1  UNL1       -0.0849
     21 C         142.3322  138.1851  161.8303 C.2     1  UNL1        0.2460
     22 O         143.5289  138.2969  162.7278 O.2     1  UNL1       -0.2701
     23 N         141.0461  137.6252  162.3616 N.am    1  UNL1       -0.2995
     24 H         140.2606  137.5517  161.7726 H       1  UNL1        0.1498
     25 C         140.9566  137.1771  163.7903 C.3     1  UNL1        0.1056
     26 C         140.2226  138.0154  164.7947 C.3     1  UNL1        0.0772
     27 C         138.8921  137.5637  165.3196 C.3     1  UNL1        0.0191
     28 N         140.8193  139.3054  165.2742 N.3     1  UNL1       -0.2724
     29 C         141.7698  139.3064  166.4346 C.3     1  UNL1        0.0721
     30 C         143.1873  138.8547  166.2433 C.3     1  UNL1        0.0188
     31 C         140.4656  140.5942  164.5932 C.3     1  UNL1        0.0721
     32 C         141.4640  141.2695  163.7005 C.3     1  UNL1        0.0188
     33 C         141.7546  136.3069  156.2379 C.3     1  UNL1        0.0067
     34 C         142.9253  137.0640  156.7913 C.3     1  UNL1        0.0458
@<TRIPOS>BOND
     1    33    34    1
     2    34     1    1
     3     1     2   ar
     4     2     3   ar
     5     3    21    1
     6    21    22    2
     7    21    23   am
     8    23    25    1
     9    25    26    1
    10    26    27    1
    11    26    28    1
    12    28    29    1
    13    29    30    1
    14    28    31    1
    15    31    32    1
    16     3     4   ar
    17     4     5   ar
    18     5     7    1
    19     7     8   ar
    20     8     9   ar
    21     9    10   ar
    22    10    11   ar
    23    11    12   ar
    24    12    13   ar
    25    13    16    1
    26    16    17   ar
    27    17    18   ar
    28    18    19   ar
    29    19    20   ar
    30    13    14   ar
    31    14    15   ar
    32     5     6   ar
    33     6     1   ar
    34    15     7   ar
    35    15    10   ar
    36    20    16   ar
    37    23    24    1
