@<TRIPOS>MOLECULE
*****
 25 27 0 0 0
SMALL
GASTEIGER

@<TRIPOS>ATOM
      1 C         144.0983  141.8698  162.0552 C.3     1  UNL1        0.4092
      2 N         142.9844  142.8390  161.7909 N.ar    1  UNL1       -0.1494
      3 C         142.7951  143.4072  160.4157 C.ar    1  UNL1        0.2701
      4 C         141.6812  144.3764  160.1514 C.ar    1  UNL1        0.0787
      5 C         140.7566  144.7774  161.2624 C.ar    1  UNL1        0.0136
      6 C         140.9459  144.2093  162.6376 C.ar    1  UNL1        0.0787
      7 C         142.0598  143.2401  162.9019 C.ar    1  UNL1        0.2701
      8 C         143.7197  143.0061  159.3046 C.1     1  UNL1        0.0086
      9 C         144.6442  142.6051  158.1936 C.1     1  UNL1       -0.0532
     10 C         145.5688  142.2040  157.0826 C.ar    1  UNL1        0.0527
     11 C         145.0481  141.4041  155.9254 C.ar    1  UNL1        0.0091
     12 C         145.9727  141.0031  154.8145 C.ar    1  UNL1        0.0007
     13 C         147.4179  141.4020  154.8606 C.ar    1  UNL1        0.0009
     14 C         147.9386  142.2019  156.0178 C.ar    1  UNL1        0.0120
     15 C         147.0140  142.6029  157.1287 C.ar    1  UNL1        0.0653
     16 CL        147.5347  143.4029  158.2859 Cl      1  UNL1       -0.0816
     17 C         142.2491  142.6719  164.2772 C.1     1  UNL1        0.0086
     18 C         142.4385  142.1038  165.6524 C.1     1  UNL1       -0.0532
     19 C         142.6278  141.5356  167.0278 C.ar    1  UNL1        0.0527
     20 C         143.1403  142.4076  168.1354 C.ar    1  UNL1        0.0091
     21 C         143.3297  141.8395  169.5107 C.ar    1  UNL1        0.0007
     22 C         143.0064  140.3995  169.7783 C.ar    1  UNL1        0.0009
     23 C         142.4939  139.5275  168.6706 C.ar    1  UNL1        0.0120
     24 C         142.3046  140.0956  167.2954 C.ar    1  UNL1        0.0653
     25 CL        141.7920  139.2236  166.1877 Cl      1  UNL1       -0.0816
@<TRIPOS>UNITY_ATOM_ATTR
2 1
charge 1
@<TRIPOS>BOND
     1     1     2    1
     2     2     3   ar
     3     3     8    1
     4     8     9    3
     5     9    10    1
     6    10    11   ar
     7    11    12   ar
     8    12    13   ar
     9    13    14   ar
    10    14    15   ar
    11    15    16    1
    12     3     4   ar
    13     4     5   ar
    14     5     6   ar
    15     6     7   ar
    16     7    17    1
    17    17    18    3
    18    18    19    1
    19    19    20   ar
    20    20    21   ar
    21    21    22   ar
    22    22    23   ar
    23    23    24   ar
    24    24    25    1
    25     7     2   ar
    26    24    19   ar
    27    15    10   ar
@<TRIPOS>MOLECULE
*****
 25 27 0 0 0
SMALL
GASTEIGER

@<TRIPOS>ATOM
      1 C         142.2330  142.1995  162.7779 C.3     1  UNL1        0.4092
      2 N         141.4673  143.4451  162.4430 N.ar    1  UNL1       -0.1494
      3 C         141.5729  144.0446  161.0722 C.ar    1  UNL1        0.2701
      4 C         140.8072  145.2902  160.7372 C.ar    1  UNL1        0.0787
      5 C         139.9358  145.9363  161.7732 C.ar    1  UNL1        0.0136
      6 C         139.8302  145.3368  163.1441 C.ar    1  UNL1        0.0787
      7 C         140.5959  144.0912  163.4790 C.ar    1  UNL1        0.2701
      8 C         142.4443  143.3986  160.0361 C.1     1  UNL1        0.0086
      9 C         143.3157  142.7525  159.0001 C.1     1  UNL1       -0.0532
     10 C         144.1871  142.1064  157.9641 C.ar    1  UNL1        0.0527
     11 C         145.5605  142.6467  157.6964 C.ar    1  UNL1        0.0091
     12 C         146.4318  142.0007  156.6604 C.ar    1  UNL1        0.0007
     13 C         145.9297  140.8143  155.8920 C.ar    1  UNL1        0.0009
     14 C         144.5562  140.2740  156.1597 C.ar    1  UNL1        0.0120
     15 C         143.6849  140.9201  157.1957 C.ar    1  UNL1        0.0653
     16 CL        142.3114  140.3798  157.4633 Cl      1  UNL1       -0.0816
     17 C         140.4903  143.4917  164.8500 C.1     1  UNL1        0.0086
     18 C         140.3846  142.8921  166.2209 C.1     1  UNL1       -0.0532
     19 C         140.2790  142.2926  167.5918 C.ar    1  UNL1        0.0527
     20 C         140.4575  143.1574  168.8044 C.ar    1  UNL1        0.0091
     21 C         140.3518  142.5580  170.1753 C.ar    1  UNL1        0.0007
     22 C         140.0677  141.0937  170.3337 C.ar    1  UNL1        0.0009
     23 C         139.8891  140.2289  169.1211 C.ar    1  UNL1        0.0120
     24 C         139.9948  140.8284  167.7502 C.ar    1  UNL1        0.0653
     25 CL        139.8163  139.9635  166.5377 Cl      1  UNL1       -0.0816
@<TRIPOS>UNITY_ATOM_ATTR
2 1
charge 1
@<TRIPOS>BOND
     1     1     2    1
     2     2     3   ar
     3     3     8    1
     4     8     9    3
     5     9    10    1
     6    10    11   ar
     7    11    12   ar
     8    12    13   ar
     9    13    14   ar
    10    14    15   ar
    11    15    16    1
    12     3     4   ar
    13     4     5   ar
    14     5     6   ar
    15     6     7   ar
    16     7    17    1
    17    17    18    3
    18    18    19    1
    19    19    20   ar
    20    20    21   ar
    21    21    22   ar
    22    22    23   ar
    23    23    24   ar
    24    24    25    1
    25     7     2   ar
    26    24    19   ar
    27    15    10   ar
@<TRIPOS>MOLECULE
*****
 25 27 0 0 0
SMALL
GASTEIGER

@<TRIPOS>ATOM
      1 C         142.1782  142.1430  162.7412 C.3     1  UNL1        0.4092
      2 N         141.4423  143.4073  162.4094 N.ar    1  UNL1       -0.1494
      3 C         140.5967  144.0783  163.4509 C.ar    1  UNL1        0.2701
      4 C         139.8609  145.3426  163.1192 C.ar    1  UNL1        0.0787
      5 C         139.9706  145.9359  161.7459 C.ar    1  UNL1        0.0136
      6 C         140.8162  145.2649  160.7044 C.ar    1  UNL1        0.0787
      7 C         141.5520  144.0006  161.0362 C.ar    1  UNL1        0.2701
      8 C         140.4870  143.4849  164.8243 C.1     1  UNL1        0.0086
      9 C         140.3772  142.8916  166.1975 C.1     1  UNL1       -0.0532
     10 C         140.2674  142.2983  167.5709 C.ar    1  UNL1        0.0527
     11 C         140.4530  143.1664  168.7799 C.ar    1  UNL1        0.0091
     12 C         140.3433  142.5730  170.1532 C.ar    1  UNL1        0.0007
     13 C         140.0479  141.1116  170.3174 C.ar    1  UNL1        0.0009
     14 C         139.8622  140.2435  169.1083 C.ar    1  UNL1        0.0120
     15 C         139.9720  140.8368  167.7350 C.ar    1  UNL1        0.0653
     16 CL        139.7864  139.9687  166.5259 Cl      1  UNL1       -0.0816
     17 C         142.3976  143.3297  159.9946 C.1     1  UNL1        0.0086
     18 C         143.2432  142.6587  158.9531 C.1     1  UNL1       -0.0532
     19 C         144.0888  141.9878  157.9115 C.ar    1  UNL1        0.0527
     20 C         145.4540  142.5227  157.5952 C.ar    1  UNL1        0.0091
     21 C         146.2996  141.8518  156.5536 C.ar    1  UNL1        0.0007
     22 C         145.7800  140.6460  155.8285 C.ar    1  UNL1        0.0009
     23 C         144.4148  140.1110  156.1448 C.ar    1  UNL1        0.0120
     24 C         143.5692  140.7819  157.1863 C.ar    1  UNL1        0.0653
     25 CL        142.2040  140.2470  157.5026 Cl      1  UNL1       -0.0816
@<TRIPOS>UNITY_ATOM_ATTR
2 1
charge 1
@<TRIPOS>BOND
     1     1     2    1
     2     2     3   ar
     3     3     8    1
     4     8     9    3
     5     9    10    1
     6    10    11   ar
     7    11    12   ar
     8    12    13   ar
     9    13    14   ar
    10    14    15   ar
    11    15    16    1
    12     3     4   ar
    13     4     5   ar
    14     5     6   ar
    15     6     7   ar
    16     7    17    1
    17    17    18    3
    18    18    19    1
    19    19    20   ar
    20    20    21   ar
    21    21    22   ar
    22    22    23   ar
    23    23    24   ar
    24    24    25    1
    25     7     2   ar
    26    24    19   ar
    27    15    10   ar
@<TRIPOS>MOLECULE
*****
 25 27 0 0 0
SMALL
GASTEIGER

@<TRIPOS>ATOM
      1 C         142.6055  139.5185  162.5330 C.3     1  UNL1        0.4092
      2 N         141.1979  139.0011  162.5006 N.ar    1  UNL1       -0.1494
      3 C         140.3835  138.9637  163.7597 C.ar    1  UNL1        0.2701
      4 C         138.9759  138.4463  163.7274 C.ar    1  UNL1        0.0787
      5 C         138.3827  137.9664  162.4360 C.ar    1  UNL1        0.0136
      6 C         139.1971  138.0039  161.1769 C.ar    1  UNL1        0.0787
      7 C         140.6047  138.5212  161.2092 C.ar    1  UNL1        0.2701
      8 C         140.9767  139.4436  165.0512 C.1     1  UNL1        0.0086
      9 C         141.5698  139.9235  166.3426 C.1     1  UNL1       -0.0532
     10 C         142.1630  140.4034  167.6341 C.ar    1  UNL1        0.0527
     11 C         142.0944  139.5389  168.8580 C.ar    1  UNL1        0.0091
     12 C         142.6876  140.0188  170.1494 C.ar    1  UNL1        0.0007
     13 C         143.3494  141.3633  170.2169 C.ar    1  UNL1        0.0009
     14 C         143.4180  142.2278  168.9931 C.ar    1  UNL1        0.0120
     15 C         142.8248  141.7478  167.7017 C.ar    1  UNL1        0.0653
     16 CL        142.8934  142.6123  166.4777 Cl      1  UNL1       -0.0816
     17 C         141.4191  138.5587  159.9501 C.1     1  UNL1        0.0086
     18 C         142.2335  138.5960  158.6910 C.1     1  UNL1       -0.0532
     19 C         143.0479  138.6335  157.4318 C.ar    1  UNL1        0.0527
     20 C         143.7115  139.9094  157.0055 C.ar    1  UNL1        0.0091
     21 C         144.5258  139.9468  155.7464 C.ar    1  UNL1        0.0007
     22 C         144.6766  138.7084  154.9136 C.ar    1  UNL1        0.0009
     23 C         144.0130  137.4325  155.3399 C.ar    1  UNL1        0.0120
     24 C         143.1986  137.3951  156.5990 C.ar    1  UNL1        0.0653
     25 CL        142.5351  136.1192  157.0253 Cl      1  UNL1       -0.0816
@<TRIPOS>UNITY_ATOM_ATTR
2 1
charge 1
@<TRIPOS>BOND
     1     1     2    1
     2     2     3   ar
     3     3     8    1
     4     8     9    3
     5     9    10    1
     6    10    11   ar
     7    11    12   ar
     8    12    13   ar
     9    13    14   ar
    10    14    15   ar
    11    15    16    1
    12     3     4   ar
    13     4     5   ar
    14     5     6   ar
    15     6     7   ar
    16     7    17    1
    17    17    18    3
    18    18    19    1
    19    19    20   ar
    20    20    21   ar
    21    21    22   ar
    22    22    23   ar
    23    23    24   ar
    24    24    25    1
    25     7     2   ar
    26    24    19   ar
    27    15    10   ar
@<TRIPOS>MOLECULE
*****
 25 27 0 0 0
SMALL
GASTEIGER

@<TRIPOS>ATOM
      1 C         140.1645  141.9684  163.2850 C.3     1  UNL1        0.4092
      2 N         139.5176  140.6694  162.9054 N.ar    1  UNL1       -0.1494
      3 C         139.3390  139.5919  163.9335 C.ar    1  UNL1        0.2701
      4 C         138.6921  138.2929  163.5539 C.ar    1  UNL1        0.0787
      5 C         138.2238  138.0714  162.1462 C.ar    1  UNL1        0.0136
      6 C         138.4024  139.1489  161.1181 C.ar    1  UNL1        0.0787
      7 C         139.0493  140.4479  161.4977 C.ar    1  UNL1        0.2701
      8 C         139.8074  139.8133  165.3412 C.1     1  UNL1        0.0086
      9 C         140.2756  140.0347  166.7489 C.1     1  UNL1       -0.0532
     10 C         140.7440  140.2562  168.1567 C.ar    1  UNL1        0.0527
     11 C         139.8710  140.9904  169.1308 C.ar    1  UNL1        0.0091
     12 C         140.3394  141.2118  170.5384 C.ar    1  UNL1        0.0007
     13 C         141.6807  140.6990  170.9720 C.ar    1  UNL1        0.0009
     14 C         142.5536  139.9649  169.9979 C.ar    1  UNL1        0.0120
     15 C         142.0853  139.7434  168.5902 C.ar    1  UNL1        0.0653
     16 CL        142.9583  139.0092  167.6161 Cl      1  UNL1       -0.0816
     17 C         139.2279  141.5255  160.4695 C.1     1  UNL1        0.0086
     18 C         139.4064  142.6030  159.4415 C.1     1  UNL1       -0.0532
     19 C         139.5850  143.6806  158.4133 C.ar    1  UNL1        0.0527
     20 C         139.0927  143.4693  157.0122 C.ar    1  UNL1        0.0091
     21 C         139.2712  144.5468  155.9841 C.ar    1  UNL1        0.0007
     22 C         139.9421  145.8355  156.3570 C.ar    1  UNL1        0.0009
     23 C         140.4343  146.0468  157.7581 C.ar    1  UNL1        0.0120
     24 C         140.2558  144.9693  158.7862 C.ar    1  UNL1        0.0653
     25 CL        140.7481  145.1806  160.1873 Cl      1  UNL1       -0.0816
@<TRIPOS>UNITY_ATOM_ATTR
2 1
charge 1
@<TRIPOS>BOND
     1     1     2    1
     2     2     3   ar
     3     3     8    1
     4     8     9    3
     5     9    10    1
     6    10    11   ar
     7    11    12   ar
     8    12    13   ar
     9    13    14   ar
    10    14    15   ar
    11    15    16    1
    12     3     4   ar
    13     4     5   ar
    14     5     6   ar
    15     6     7   ar
    16     7    17    1
    17    17    18    3
    18    18    19    1
    19    19    20   ar
    20    20    21   ar
    21    21    22   ar
    22    22    23   ar
    23    23    24   ar
    24    24    25    1
    25     7     2   ar
    26    24    19   ar
    27    15    10   ar
@<TRIPOS>MOLECULE
*****
 25 27 0 0 0
SMALL
GASTEIGER

@<TRIPOS>ATOM
      1 C         140.1728  141.9443  163.2790 C.3     1  UNL1        0.4092
      2 N         139.5350  140.6382  162.9084 N.ar    1  UNL1       -0.1494
      3 C         139.0642  140.4055  161.5034 C.ar    1  UNL1        0.2701
      4 C         138.4265  139.0994  161.1327 C.ar    1  UNL1        0.0787
      5 C         138.2595  138.0261  162.1671 C.ar    1  UNL1        0.0136
      6 C         138.7303  138.2588  163.5721 C.ar    1  UNL1        0.0787
      7 C         139.3681  139.5649  163.9428 C.ar    1  UNL1        0.2701
      8 C         139.2312  141.4789  160.4689 C.1     1  UNL1        0.0086
      9 C         139.3980  142.5523  159.4345 C.1     1  UNL1       -0.0532
     10 C         139.5650  143.6256  158.4001 C.ar    1  UNL1        0.0527
     11 C         139.0466  143.4134  157.0086 C.ar    1  UNL1        0.0091
     12 C         139.2136  144.4867  155.9742 C.ar    1  UNL1        0.0007
     13 C         139.8989  145.7724  156.3313 C.ar    1  UNL1        0.0009
     14 C         140.4172  145.9846  157.7228 C.ar    1  UNL1        0.0120
     15 C         140.2503  144.9113  158.7571 C.ar    1  UNL1        0.0653
     16 CL        140.7687  145.1235  160.1487 Cl      1  UNL1       -0.0816
     17 C         139.8389  139.7976  165.3479 C.1     1  UNL1        0.0086
     18 C         140.3097  140.0302  166.7529 C.1     1  UNL1       -0.0532
     19 C         140.7805  140.2629  168.1580 C.ar    1  UNL1        0.0527
     20 C         139.9110  141.0085  169.1266 C.ar    1  UNL1        0.0091
     21 C         140.3817  141.2412  170.5316 C.ar    1  UNL1        0.0007
     22 C         141.7220  140.7284  170.9681 C.ar    1  UNL1        0.0009
     23 C         142.5915  139.9828  169.9996 C.ar    1  UNL1        0.0120
     24 C         142.1208  139.7501  168.5945 C.ar    1  UNL1        0.0653
     25 CL        142.9903  139.0045  167.6260 Cl      1  UNL1       -0.0816
@<TRIPOS>UNITY_ATOM_ATTR
2 1
charge 1
@<TRIPOS>BOND
     1     1     2    1
     2     2     3   ar
     3     3     8    1
     4     8     9    3
     5     9    10    1
     6    10    11   ar
     7    11    12   ar
     8    12    13   ar
     9    13    14   ar
    10    14    15   ar
    11    15    16    1
    12     3     4   ar
    13     4     5   ar
    14     5     6   ar
    15     6     7   ar
    16     7    17    1
    17    17    18    3
    18    18    19    1
    19    19    20   ar
    20    20    21   ar
    21    21    22   ar
    22    22    23   ar
    23    23    24   ar
    24    24    25    1
    25     7     2   ar
    26    24    19   ar
    27    15    10   ar
@<TRIPOS>MOLECULE
*****
 25 27 0 0 0
SMALL
GASTEIGER

@<TRIPOS>ATOM
      1 C         140.9278  140.4061  163.4897 C.3     1  UNL1        0.4092
      2 N         139.8728  141.4147  163.1436 N.ar    1  UNL1       -0.1494
      3 C         139.3149  141.4691  161.7523 C.ar    1  UNL1        0.2701
      4 C         138.2600  142.4776  161.4062 C.ar    1  UNL1        0.0787
      5 C         137.7629  143.4318  162.4514 C.ar    1  UNL1        0.0136
      6 C         138.3208  143.3774  163.8426 C.ar    1  UNL1        0.0787
      7 C         139.3758  142.3689  164.1888 C.ar    1  UNL1        0.2701
      8 C         139.8120  140.5148  160.7071 C.1     1  UNL1        0.0086
      9 C         140.3090  139.5607  159.6619 C.1     1  UNL1       -0.0532
     10 C         140.8060  138.6064  158.6166 C.ar    1  UNL1        0.0527
     11 C         139.8845  138.1380  157.5298 C.ar    1  UNL1        0.0091
     12 C         140.3816  137.1838  156.4846 C.ar    1  UNL1        0.0007
     13 C         141.8001  136.6981  156.5263 C.ar    1  UNL1        0.0009
     14 C         142.7216  137.1666  157.6131 C.ar    1  UNL1        0.0120
     15 C         142.2246  138.1207  158.6583 C.ar    1  UNL1        0.0653
     16 CL        143.1461  138.5893  159.7452 Cl      1  UNL1       -0.0816
     17 C         139.9337  142.3145  165.5802 C.1     1  UNL1        0.0086
     18 C         140.4915  142.2602  166.9715 C.1     1  UNL1       -0.0532
     19 C         141.0495  142.2058  168.3628 C.ar    1  UNL1        0.0527
     20 C         140.1277  142.0398  169.5345 C.ar    1  UNL1        0.0091
     21 C         140.6855  141.9855  170.9258 C.ar    1  UNL1        0.0007
     22 C         142.1651  142.0971  171.1455 C.ar    1  UNL1        0.0009
     23 C         143.0869  142.2630  169.9738 C.ar    1  UNL1        0.0120
     24 C         142.5291  142.3174  168.5825 C.ar    1  UNL1        0.0653
     25 CL        143.4508  142.4834  167.4108 Cl      1  UNL1       -0.0816
@<TRIPOS>UNITY_ATOM_ATTR
2 1
charge 1
@<TRIPOS>BOND
     1     1     2    1
     2     2     3   ar
     3     3     8    1
     4     8     9    3
     5     9    10    1
     6    10    11   ar
     7    11    12   ar
     8    12    13   ar
     9    13    14   ar
    10    14    15   ar
    11    15    16    1
    12     3     4   ar
    13     4     5   ar
    14     5     6   ar
    15     6     7   ar
    16     7    17    1
    17    17    18    3
    18    18    19    1
    19    19    20   ar
    20    20    21   ar
    21    21    22   ar
    22    22    23   ar
    23    23    24   ar
    24    24    25    1
    25     7     2   ar
    26    24    19   ar
    27    15    10   ar
@<TRIPOS>MOLECULE
*****
 25 27 0 0 0
SMALL
GASTEIGER

@<TRIPOS>ATOM
      1 C         141.4483  143.2610  163.4470 C.3     1  UNL1        0.4092
      2 N         142.8579  142.7704  163.2978 N.ar    1  UNL1       -0.1494
      3 C         143.5956  142.2350  164.4890 C.ar    1  UNL1        0.2701
      4 C         145.0053  141.7444  164.3399 C.ar    1  UNL1        0.0787
      5 C         145.6772  141.7892  162.9996 C.ar    1  UNL1        0.0136
      6 C         144.9394  142.3246  161.8084 C.ar    1  UNL1        0.0787
      7 C         143.5298  142.8153  161.9575 C.ar    1  UNL1        0.2701
      8 C         142.9238  142.1901  165.8294 C.1     1  UNL1        0.0086
      9 C         142.2519  142.1453  167.1698 C.1     1  UNL1       -0.0532
     10 C         141.5800  142.1004  168.5102 C.ar    1  UNL1        0.0527
     11 C         140.6912  143.2290  168.9418 C.ar    1  UNL1        0.0091
     12 C         140.0194  143.1841  170.2821 C.ar    1  UNL1        0.0007
     13 C         140.2363  142.0106  171.1909 C.ar    1  UNL1        0.0009
     14 C         141.1251  140.8820  170.7593 C.ar    1  UNL1        0.0120
     15 C         141.7969  140.9269  169.4189 C.ar    1  UNL1        0.0653
     16 CL        142.6858  139.7983  168.9873 Cl      1  UNL1       -0.0816
     17 C         142.7920  143.3507  160.7662 C.1     1  UNL1        0.0086
     18 C         142.0544  143.8862  159.5750 C.1     1  UNL1       -0.0532
     19 C         141.3166  144.4217  158.3837 C.ar    1  UNL1        0.0527
     20 C         141.8062  145.6597  157.6927 C.ar    1  UNL1        0.0091
     21 C         141.0685  146.1952  156.5014 C.ar    1  UNL1        0.0007
     22 C         139.8413  145.4926  156.0013 C.ar    1  UNL1        0.0009
     23 C         139.3517  144.2546  156.6923 C.ar    1  UNL1        0.0120
     24 C         140.0894  143.7191  157.8836 C.ar    1  UNL1        0.0653
     25 CL        139.5998  142.4811  158.5746 Cl      1  UNL1       -0.0816
@<TRIPOS>UNITY_ATOM_ATTR
2 1
charge 1
@<TRIPOS>BOND
     1     1     2    1
     2     2     3   ar
     3     3     8    1
     4     8     9    3
     5     9    10    1
     6    10    11   ar
     7    11    12   ar
     8    12    13   ar
     9    13    14   ar
    10    14    15   ar
    11    15    16    1
    12     3     4   ar
    13     4     5   ar
    14     5     6   ar
    15     6     7   ar
    16     7    17    1
    17    17    18    3
    18    18    19    1
    19    19    20   ar
    20    20    21   ar
    21    21    22   ar
    22    22    23   ar
    23    23    24   ar
    24    24    25    1
    25     7     2   ar
    26    24    19   ar
    27    15    10   ar
@<TRIPOS>MOLECULE
*****
 25 27 0 0 0
SMALL
GASTEIGER

@<TRIPOS>ATOM
      1 C         142.9661  137.7159  159.7665 C.3     1  UNL1        0.4092
      2 N         143.0174  138.7043  158.6394 N.ar    1  UNL1       -0.1494
      3 C         143.1608  140.1685  158.9317 C.ar    1  UNL1        0.2701
      4 C         143.2121  141.1569  157.8046 C.ar    1  UNL1        0.0787
      5 C         143.1200  140.6811  156.3851 C.ar    1  UNL1        0.0136
      6 C         142.9766  139.2169  156.0927 C.ar    1  UNL1        0.0787
      7 C         142.9253  138.2285  157.2198 C.ar    1  UNL1        0.2701
      8 C         143.2529  140.6444  160.3513 C.1     1  UNL1        0.0086
      9 C         143.3450  141.1202  161.7708 C.1     1  UNL1       -0.0532
     10 C         143.4371  141.5961  163.1904 C.ar    1  UNL1        0.0527
     11 C         142.9611  140.7169  164.3085 C.ar    1  UNL1        0.0091
     12 C         143.0532  141.1928  165.7280 C.ar    1  UNL1        0.0007
     13 C         143.6214  142.5479  166.0294 C.ar    1  UNL1        0.0009
     14 C         144.0974  143.4271  164.9112 C.ar    1  UNL1        0.0120
     15 C         144.0053  142.9512  163.4917 C.ar    1  UNL1        0.0653
     16 CL        144.4814  143.8305  162.3735 Cl      1  UNL1       -0.0816
     17 C         142.7819  136.7642  156.9274 C.1     1  UNL1        0.0086
     18 C         142.6385  135.3000  156.6350 C.1     1  UNL1       -0.0532
     19 C         142.4951  133.8358  156.3426 C.ar    1  UNL1        0.0527
     20 C         141.4501  133.3629  155.3760 C.ar    1  UNL1        0.0091
     21 C         141.3067  131.8987  155.0836 C.ar    1  UNL1        0.0007
     22 C         142.2083  130.9074  155.7577 C.ar    1  UNL1        0.0009
     23 C         143.2533  131.3803  156.7243 C.ar    1  UNL1        0.0120
     24 C         143.3967  132.8445  157.0168 C.ar    1  UNL1        0.0653
     25 CL        144.4417  133.3174  157.9834 Cl      1  UNL1       -0.0816
@<TRIPOS>UNITY_ATOM_ATTR
2 1
charge 1
@<TRIPOS>BOND
     1     1     2    1
     2     2     3   ar
     3     3     8    1
     4     8     9    3
     5     9    10    1
     6    10    11   ar
     7    11    12   ar
     8    12    13   ar
     9    13    14   ar
    10    14    15   ar
    11    15    16    1
    12     3     4   ar
    13     4     5   ar
    14     5     6   ar
    15     6     7   ar
    16     7    17    1
    17    17    18    3
    18    18    19    1
    19    19    20   ar
    20    20    21   ar
    21    21    22   ar
    22    22    23   ar
    23    23    24   ar
    24    24    25    1
    25     7     2   ar
    26    24    19   ar
    27    15    10   ar
