@<TRIPOS>MOLECULE
*****
 31 34 0 0 0
SMALL
GASTEIGER

@<TRIPOS>ATOM
      1 C         143.1972  143.2989  164.4305 C.ar    1  UNL1        0.1033
      2 C         144.2708  143.5291  165.4526 C.ar    1  UNL1        0.1101
      3 N         143.8456  142.8658  166.7290 N.ar    1  UNL1       -0.2391
      4 C         142.5091  142.2257  166.4958 C.ar    1  UNL1        0.1109
      5 S         142.1085  142.4934  165.0753 S.2     1  UNL1       -0.0643
      6 C         141.7131  141.4535  167.5058 C.3     1  UNL1        0.1548
      7 C         141.2881  141.4671  166.0674 C.3     1  UNL1        0.1705
      8 O         140.0671  140.7085  165.6390 O.3     1  UNL1       -0.3538
      9 C         139.2711  139.9363  166.6490 C.3     1  UNL1        0.1155
     10 C         138.0500  139.1777  166.2206 C.3     1  UNL1        0.0320
     11 C         139.6961  139.9227  168.0875 C.3     1  UNL1        0.0328
     12 C         140.9172  140.6813  168.5159 C.3     1  UNL1        0.0426
     13 C         141.3423  140.6677  169.9543 C.3     1  UNL1        0.0673
     14 S         142.5633  141.4263  170.3827 S.3     1  UNL1       -0.0807
     15 C         143.3593  142.1985  169.3727 C.2     1  UNL1        0.1483
     16 N         144.5804  142.9571  169.8012 N.pl3   1  UNL1       -0.3380
     17 N         142.9342  142.2121  167.9343 N.2     1  UNL1       -0.2464
     18 H         144.8594  142.9482  170.7453 H       1  UNL1        0.1442
     19 H         145.1028  143.4640  169.1383 H       1  UNL1        0.1442
     20 N         142.2043  143.2667  162.0300 N.am    1  UNL1       -0.2798
     21 C         143.2102  143.7884  163.0128 C.2     1  UNL1        0.2571
     22 O         144.2292  144.7995  162.5777 O.2     1  UNL1       -0.2692
     23 H         141.5355  142.6031  162.3155 H       1  UNL1        0.1552
     24 C         143.1161  143.5841  158.1805 C.ar    1  UNL1        0.1400
     25 C         142.2434  144.7353  157.7765 C.ar    1  UNL1        0.0370
     26 C         141.3576  145.3969  158.7902 C.ar    1  UNL1        0.0044
     27 C         141.3446  144.9074  160.2081 C.ar    1  UNL1        0.0149
     28 C         142.2173  143.7562  160.6122 C.ar    1  UNL1        0.0536
     29 C         143.1031  143.0946  159.5984 C.ar    1  UNL1        0.0516
     30 C         145.2753  142.2603  157.6020 C.3     1  UNL1        0.2525
     31 O         144.0018  142.9225  157.1667 O.3     1  UNL1       -0.4714
@<TRIPOS>BOND
     1    30    31    1
     2    31    24    1
     3    24    25   ar
     4    25    26   ar
     5    26    27   ar
     6    27    28   ar
     7    28    20    1
     8    20    21   am
     9    21    22    2
    10    21     1    1
    11     1     2   ar
    12     2     3   ar
    13     3     4   ar
    14     6     4    1
    15     6     7    1
    16     7     8    1
    17     8     9    1
    18     9    10    1
    19     9    11    1
    20    12    11    1
    21    12    13    1
    22    13    14    1
    23    14    15    1
    24    15    16    1
    25    15    17    2
    26     4     5   ar
    27    28    29   ar
    28    29    24   ar
    29     5     1   ar
    30    12     6    1
    31    17     6    1
    32    20    23    1
    33    16    18    1
    34    16    19    1
@<TRIPOS>MOLECULE
*****
 31 34 0 0 0
SMALL
GASTEIGER

@<TRIPOS>ATOM
      1 C         143.7545  141.8883  164.5403 C.ar    1  UNL1        0.1033
      2 C         144.2983  142.9050  165.4997 C.ar    1  UNL1        0.1101
      3 N         143.5794  142.7408  166.8060 N.ar    1  UNL1       -0.2391
      4 C         142.5912  141.6225  166.6538 C.ar    1  UNL1        0.1109
      5 S         142.6995  141.0957  165.2535 S.2     1  UNL1       -0.0643
      6 C         141.6586  141.1194  167.7155 C.3     1  UNL1        0.1548
      7 C         141.3399  140.8911  166.2676 C.3     1  UNL1        0.1705
      8 O         140.0886  140.1597  165.8815 O.3     1  UNL1       -0.3538
      9 C         139.1560  139.6566  166.9432 C.3     1  UNL1        0.1155
     10 C         137.9046  138.9251  166.5570 C.3     1  UNL1        0.0320
     11 C         139.4747  139.8849  168.3910 C.3     1  UNL1        0.0328
     12 C         140.7260  140.6163  168.7771 C.3     1  UNL1        0.0426
     13 C         141.0448  140.8447  170.2250 C.3     1  UNL1        0.0673
     14 S         142.2961  141.5761  170.6112 S.3     1  UNL1       -0.0807
     15 C         143.2288  142.0792  169.5495 C.2     1  UNL1        0.1483
     16 N         144.4801  142.8106  169.9357 N.pl3   1  UNL1       -0.3380
     17 N         142.9100  141.8509  168.1017 N.2     1  UNL1       -0.2464
     18 H         144.6893  142.9605  170.8860 H       1  UNL1        0.1442
     19 H         145.0923  143.1408  169.2389 H       1  UNL1        0.1442
     20 N         143.1740  141.7186  162.0136 N.am    1  UNL1       -0.2798
     21 C         144.1894  141.6977  163.1175 C.2     1  UNL1        0.2571
     22 O         145.6398  141.4863  162.7985 O.2     1  UNL1       -0.2692
     23 H         142.2220  141.8573  162.2230 H       1  UNL1        0.1552
     24 C         143.8177  140.0215  158.4843 C.ar    1  UNL1        0.1400
     25 C         144.4789  141.1469  157.7451 C.ar    1  UNL1        0.0370
     26 C         144.7051  142.4628  158.4287 C.ar    1  UNL1        0.0044
     27 C         144.2701  142.6533  159.8515 C.ar    1  UNL1        0.0149
     28 C         143.6089  141.5280  160.5908 C.ar    1  UNL1        0.0536
     29 C         143.3827  140.2121  159.9072 C.ar    1  UNL1        0.0516
     30 C         142.2805  137.9942  157.9584 C.3     1  UNL1        0.2525
     31 O         143.5915  138.7057  157.8007 O.3     1  UNL1       -0.4714
@<TRIPOS>BOND
     1    30    31    1
     2    31    24    1
     3    24    25   ar
     4    25    26   ar
     5    26    27   ar
     6    27    28   ar
     7    28    20    1
     8    20    21   am
     9    21    22    2
    10    21     1    1
    11     1     2   ar
    12     2     3   ar
    13     3     4   ar
    14     6     4    1
    15     6     7    1
    16     7     8    1
    17     8     9    1
    18     9    10    1
    19     9    11    1
    20    12    11    1
    21    12    13    1
    22    13    14    1
    23    14    15    1
    24    15    16    1
    25    15    17    2
    26     4     5   ar
    27    28    29   ar
    28    29    24   ar
    29     5     1   ar
    30    12     6    1
    31    17     6    1
    32    20    23    1
    33    16    18    1
    34    16    19    1
@<TRIPOS>MOLECULE
*****
 31 34 0 0 0
SMALL
GASTEIGER

@<TRIPOS>ATOM
      1 C         142.1302  143.3682  163.6051 C.ar    1  UNL1        0.1033
      2 C         143.5532  143.8334  163.5124 C.ar    1  UNL1        0.1101
      3 N         143.8758  144.0525  162.0639 N.ar    1  UNL1       -0.2391
      4 C         142.6521  143.7226  161.2615 C.ar    1  UNL1        0.1109
      5 S         141.5733  143.2997  162.2140 S.2     1  UNL1       -0.0643
      6 C         142.5289  143.8017  159.7686 C.3     1  UNL1        0.1548
      7 C         143.6146  142.9730  160.3887 C.3     1  UNL1        0.1705
      8 O         144.5771  142.2234  159.5160 O.3     1  UNL1       -0.3538
      9 C         144.4539  142.3026  158.0231 C.3     1  UNL1        0.1155
     10 C         145.4164  141.5530  157.1504 C.3     1  UNL1        0.0320
     11 C         143.3682  143.1313  157.4030 C.3     1  UNL1        0.0328
     12 C         142.4057  143.8808  158.2758 C.3     1  UNL1        0.0426
     13 C         141.3200  144.7096  157.6557 C.3     1  UNL1        0.0673
     14 S         140.3575  145.4591  158.5285 S.3     1  UNL1       -0.0807
     15 C         140.4807  145.3800  160.0213 C.2     1  UNL1        0.1483
     16 N         139.5181  146.1296  160.8941 N.pl3   1  UNL1       -0.3380
     17 N         141.5664  144.5513  160.6414 N.2     1  UNL1       -0.2464
     18 H         138.8056  146.6735  160.4871 H       1  UNL1        0.1442
     19 H         139.5990  146.0777  161.8739 H       1  UNL1        0.1442
     20 N         141.8696  141.9038  165.7352 N.am    1  UNL1       -0.2798
     21 C         141.3935  143.0307  164.8674 C.2     1  UNL1        0.2571
     22 O         140.1806  143.8203  165.2617 O.2     1  UNL1       -0.2692
     23 H         142.6656  141.3855  165.4764 H       1  UNL1        0.1552
     24 C         139.3515  140.1525  168.2537 C.ar    1  UNL1        0.1400
     25 C         139.6593  140.8916  169.5221 C.ar    1  UNL1        0.0370
     26 C         140.7039  141.9681  169.5283 C.ar    1  UNL1        0.0044
     27 C         141.4406  142.3055  168.2660 C.ar    1  UNL1        0.0149
     28 C         141.1328  141.5663  166.9975 C.ar    1  UNL1        0.0536
     29 C         140.0882  140.4898  166.9913 C.ar    1  UNL1        0.0516
     30 C         137.7454  138.5833  166.9468 C.3     1  UNL1        0.2525
     31 O         138.3069  139.0760  168.2475 O.3     1  UNL1       -0.4714
@<TRIPOS>BOND
     1    30    31    1
     2    31    24    1
     3    24    25   ar
     4    25    26   ar
     5    26    27   ar
     6    27    28   ar
     7    28    20    1
     8    20    21   am
     9    21    22    2
    10    21     1    1
    11     1     2   ar
    12     2     3   ar
    13     3     4   ar
    14     6     4    1
    15     6     7    1
    16     7     8    1
    17     8     9    1
    18     9    10    1
    19     9    11    1
    20    12    11    1
    21    12    13    1
    22    13    14    1
    23    14    15    1
    24    15    16    1
    25    15    17    2
    26     4     5   ar
    27    28    29   ar
    28    29    24   ar
    29     5     1   ar
    30    12     6    1
    31    17     6    1
    32    20    23    1
    33    16    18    1
    34    16    19    1
@<TRIPOS>MOLECULE
*****
 31 34 0 0 0
SMALL
GASTEIGER

@<TRIPOS>ATOM
      1 C         142.4936  142.8801  163.6153 C.ar    1  UNL1        0.1033
      2 C         143.5041  143.9886  163.5976 C.ar    1  UNL1        0.1101
      3 N         143.6598  144.4513  162.1792 N.ar    1  UNL1       -0.2391
      4 C         142.7454  143.6288  161.3204 C.ar    1  UNL1        0.1109
      5 S         142.0247  142.6578  162.2079 S.2     1  UNL1       -0.0643
      6 C         142.5807  143.7552  159.8348 C.3     1  UNL1        0.1548
      7 C         143.6868  142.9128  160.3978 C.3     1  UNL1        0.1705
      8 O         144.6281  142.1967  159.4753 O.3     1  UNL1       -0.3538
      9 C         144.4634  142.3231  157.9897 C.3     1  UNL1        0.1155
     10 C         145.4048  141.6070  157.0671 C.3     1  UNL1        0.0320
     11 C         143.3574  143.1655  157.4267 C.3     1  UNL1        0.0328
     12 C         142.4161  143.8815  158.3492 C.3     1  UNL1        0.0426
     13 C         141.3100  144.7240  157.7862 C.3     1  UNL1        0.0673
     14 S         140.3686  145.4400  158.7088 S.3     1  UNL1       -0.0807
     15 C         140.5333  145.3136  160.1943 C.2     1  UNL1        0.1483
     16 N         139.5919  146.0297  161.1169 N.pl3   1  UNL1       -0.3380
     17 N         141.6393  144.4713  160.7574 N.2     1  UNL1       -0.2464
     18 H         138.8660  146.5826  160.7473 H       1  UNL1        0.1442
     19 H         139.7000  145.9468  162.0919 H       1  UNL1        0.1442
     20 N         140.7429  142.4983  165.4966 N.am    1  UNL1       -0.2798
     21 C         142.0330  142.1265  164.8276 C.2     1  UNL1        0.2571
     22 O         142.8624  141.0009  165.3709 O.2     1  UNL1       -0.2692
     23 H         140.1986  143.2371  165.1400 H       1  UNL1        0.1552
     24 C         140.1344  141.5124  169.2924 C.ar    1  UNL1        0.1400
     25 C         139.3610  140.2370  169.1335 C.ar    1  UNL1        0.0370
     26 C         139.0483  139.7154  167.7623 C.ar    1  UNL1        0.0044
     27 C         139.5089  140.4691  166.5500 C.ar    1  UNL1        0.0149
     28 C         140.2823  141.7446  166.7089 C.ar    1  UNL1        0.0536
     29 C         140.5951  142.2662  168.0800 C.ar    1  UNL1        0.0516
     30 C         141.8525  141.9777  171.1848 C.3     1  UNL1        0.2525
     31 O         140.4472  142.0340  170.6635 O.3     1  UNL1       -0.4714
@<TRIPOS>BOND
     1    30    31    1
     2    31    24    1
     3    24    25   ar
     4    25    26   ar
     5    26    27   ar
     6    27    28   ar
     7    28    20    1
     8    20    21   am
     9    21    22    2
    10    21     1    1
    11     1     2   ar
    12     2     3   ar
    13     3     4   ar
    14     6     4    1
    15     6     7    1
    16     7     8    1
    17     8     9    1
    18     9    10    1
    19     9    11    1
    20    12    11    1
    21    12    13    1
    22    13    14    1
    23    14    15    1
    24    15    16    1
    25    15    17    2
    26     4     5   ar
    27    28    29   ar
    28    29    24   ar
    29     5     1   ar
    30    12     6    1
    31    17     6    1
    32    20    23    1
    33    16    18    1
    34    16    19    1
@<TRIPOS>MOLECULE
*****
 31 34 0 0 0
SMALL
GASTEIGER

@<TRIPOS>ATOM
      1 C         140.9666  144.5096  159.1374 C.ar    1  UNL1        0.1033
      2 C         140.6554  143.0507  158.9802 C.ar    1  UNL1        0.1101
      3 N         140.7778  142.4028  160.3276 N.ar    1  UNL1       -0.2391
      4 C         141.1647  143.4613  161.3175 C.ar    1  UNL1        0.1109
      5 S         141.2813  144.7634  160.5819 S.2     1  UNL1       -0.0643
      6 C         141.3945  143.2542  162.7852 C.3     1  UNL1        0.1548
      7 C         142.5124  143.0258  161.8115 C.3     1  UNL1        0.1705
      8 O         143.8600  142.5903  162.3054 O.3     1  UNL1       -0.3538
      9 C         144.0899  142.3831  163.7732 C.3     1  UNL1        0.1155
     10 C         145.4376  141.9476  164.2671 C.3     1  UNL1        0.0320
     11 C         142.9720  142.6115  164.7469 C.3     1  UNL1        0.0328
     12 C         141.6244  143.0470  164.2530 C.3     1  UNL1        0.0426
     13 C         140.5064  143.2753  165.2267 C.3     1  UNL1        0.0673
     14 S         139.1588  143.7108  164.7328 S.3     1  UNL1       -0.0807
     15 C         138.9289  143.9180  163.2650 C.2     1  UNL1        0.1483
     16 N         137.5812  144.3535  162.7711 N.pl3   1  UNL1       -0.3380
     17 N         140.0468  143.6897  162.2913 N.2     1  UNL1       -0.2464
     18 H         136.8475  144.5034  163.4102 H       1  UNL1        0.1442
     19 H         137.4303  144.4895  161.8078 H       1  UNL1        0.1442
     20 N         139.7090  145.7955  157.2627 N.am    1  UNL1       -0.2798
     21 C         140.9635  145.5347  158.0424 C.2     1  UNL1        0.2571
     22 O         142.2151  146.2990  157.7271 O.2     1  UNL1       -0.2692
     23 H         138.8875  145.2939  157.4696 H       1  UNL1        0.1552
     24 C         138.9542  149.1330  155.2522 C.ar    1  UNL1        0.1400
     25 C         139.7001  148.8709  153.9775 C.ar    1  UNL1        0.0370
     26 C         140.4490  147.5836  153.7978 C.ar    1  UNL1        0.0044
     27 C         140.4519  146.5585  154.8929 C.ar    1  UNL1        0.0149
     28 C         139.7060  146.8206  156.1677 C.ar    1  UNL1        0.0536
     29 C         138.9572  148.1079  156.3474 C.ar    1  UNL1        0.0516
     30 C         138.9553  151.7137  155.5516 C.3     1  UNL1        0.2525
     31 O         138.2054  150.4203  155.4319 O.3     1  UNL1       -0.4714
@<TRIPOS>BOND
     1    30    31    1
     2    31    24    1
     3    24    25   ar
     4    25    26   ar
     5    26    27   ar
     6    27    28   ar
     7    28    20    1
     8    20    21   am
     9    21    22    2
    10    21     1    1
    11     1     2   ar
    12     2     3   ar
    13     3     4   ar
    14     6     4    1
    15     6     7    1
    16     7     8    1
    17     8     9    1
    18     9    10    1
    19     9    11    1
    20    12    11    1
    21    12    13    1
    22    13    14    1
    23    14    15    1
    24    15    16    1
    25    15    17    2
    26     4     5   ar
    27    28    29   ar
    28    29    24   ar
    29     5     1   ar
    30    12     6    1
    31    17     6    1
    32    20    23    1
    33    16    18    1
    34    16    19    1
@<TRIPOS>MOLECULE
*****
 31 34 0 0 0
SMALL
GASTEIGER

@<TRIPOS>ATOM
      1 C         144.3231  142.5187  158.5630 C.ar    1  UNL1        0.1033
      2 C         143.2393  143.5512  158.4654 C.ar    1  UNL1        0.1101
      3 N         142.6491  143.7344  159.8322 N.ar    1  UNL1       -0.2391
      4 C         143.3681  142.8151  160.7746 C.ar    1  UNL1        0.1109
      5 S         144.4026  142.0638  159.9901 S.2     1  UNL1       -0.0643
      6 C         143.0997  142.6723  162.2434 C.3     1  UNL1        0.1548
      7 C         144.0270  141.7159  161.5540 C.3     1  UNL1        0.1705
      8 O         144.6859  140.6167  162.3334 O.3     1  UNL1       -0.3538
      9 C         144.4175  140.4738  163.8022 C.3     1  UNL1        0.1155
     10 C         145.0765  139.3745  164.5816 C.3     1  UNL1        0.0320
     11 C         143.4902  141.4302  164.4917 C.3     1  UNL1        0.0328
     12 C         142.8313  142.5294  163.7123 C.3     1  UNL1        0.0426
     13 C         141.9039  143.4859  164.4017 C.3     1  UNL1        0.0673
     14 S         141.2450  144.5851  163.6223 S.3     1  UNL1       -0.0807
     15 C         141.5134  144.7279  162.1535 C.2     1  UNL1        0.1483
     16 N         140.8545  145.8272  161.3741 N.pl3   1  UNL1       -0.3380
     17 N         142.4408  143.7716  161.4640 N.2     1  UNL1       -0.2464
     18 H         140.2458  146.4549  161.8266 H       1  UNL1        0.1442
     19 H         141.0306  145.9210  160.4100 H       1  UNL1        0.1442
     20 N         146.0066  142.9965  156.6428 N.am    1  UNL1       -0.2798
     21 C         145.1771  142.0275  157.4321 C.2     1  UNL1        0.2571
     22 O         145.2018  140.5671  157.0904 O.2     1  UNL1       -0.2692
     23 H         145.9904  143.9550  156.8670 H       1  UNL1        0.1552
     24 C         149.1613  141.6947  154.6170 C.ar    1  UNL1        0.1400
     25 C         148.5689  141.5225  153.2498 C.ar    1  UNL1        0.0370
     26 C         147.1224  141.8416  153.0135 C.ar    1  UNL1        0.0044
     27 C         146.2683  142.3329  154.1445 C.ar    1  UNL1        0.0149
     28 C         146.8607  142.5052  155.5118 C.ar    1  UNL1        0.0536
     29 C         148.3072  142.1861  155.7481 C.ar    1  UNL1        0.0516
     30 C         151.6646  142.3799  154.5006 C.3     1  UNL1        0.2525
     31 O         150.6078  141.3756  154.8533 O.3     1  UNL1       -0.4714
@<TRIPOS>BOND
     1    30    31    1
     2    31    24    1
     3    24    25   ar
     4    25    26   ar
     5    26    27   ar
     6    27    28   ar
     7    28    20    1
     8    20    21   am
     9    21    22    2
    10    21     1    1
    11     1     2   ar
    12     2     3   ar
    13     3     4   ar
    14     6     4    1
    15     6     7    1
    16     7     8    1
    17     8     9    1
    18     9    10    1
    19     9    11    1
    20    12    11    1
    21    12    13    1
    22    13    14    1
    23    14    15    1
    24    15    16    1
    25    15    17    2
    26     4     5   ar
    27    28    29   ar
    28    29    24   ar
    29     5     1   ar
    30    12     6    1
    31    17     6    1
    32    20    23    1
    33    16    18    1
    34    16    19    1
@<TRIPOS>MOLECULE
*****
 31 34 0 0 0
SMALL
GASTEIGER

@<TRIPOS>ATOM
      1 C         141.2084  144.1499  158.9893 C.ar    1  UNL1        0.1033
      2 C         142.1360  142.9728  158.9279 C.ar    1  UNL1        0.1101
      3 N         141.8734  142.1125  160.1284 N.ar    1  UNL1       -0.2391
      4 C         140.7833  142.7581  160.9317 C.ar    1  UNL1        0.1109
      5 S         140.3724  144.0172  160.2276 S.2     1  UNL1       -0.0643
      6 C         140.2057  142.2361  162.2138 C.3     1  UNL1        0.1548
      7 C         140.1996  141.3774  160.9840 C.3     1  UNL1        0.1705
      8 O         139.6158  139.9966  161.0363 O.3     1  UNL1       -0.3538
      9 C         139.0382  139.4746  162.3185 C.3     1  UNL1        0.1155
     10 C         138.4545  138.0938  162.3708 C.3     1  UNL1        0.0320
     11 C         139.0444  140.3334  163.5483 C.3     1  UNL1        0.0328
     12 C         139.6281  141.7141  163.4959 C.3     1  UNL1        0.0426
     13 C         139.6343  142.5729  164.7258 C.3     1  UNL1        0.0673
     14 S         140.2180  143.9537  164.6735 S.3     1  UNL1       -0.0807
     15 C         140.7956  144.4756  163.3913 C.2     1  UNL1        0.1483
     16 N         141.3794  145.8565  163.3390 N.pl3   1  UNL1       -0.3380
     17 N         140.7895  143.6169  162.1615 N.2     1  UNL1       -0.2464
     18 H         141.3834  146.4201  164.1462 H       1  UNL1        0.1442
     19 H         141.7585  146.1991  162.4975 H       1  UNL1        0.1442
     20 N         139.9068  145.4215  157.1349 N.am    1  UNL1       -0.2798
     21 C         141.1304  145.2641  157.9881 C.2     1  UNL1        0.2571
     22 O         142.2762  146.2208  157.8400 O.2     1  UNL1       -0.2692
     23 H         139.1548  144.7936  157.2321 H       1  UNL1        0.1552
     24 C         138.9182  148.8631  155.4234 C.ar    1  UNL1        0.1400
     25 C         139.6733  148.7642  154.1311 C.ar    1  UNL1        0.0370
     26 C         140.5063  147.5512  153.8401 C.ar    1  UNL1        0.0044
     27 C         140.5841  146.4370  154.8413 C.ar    1  UNL1        0.0149
     28 C         139.8290  146.5358  156.1337 C.ar    1  UNL1        0.0536
     29 C         138.9960  147.7488  156.4247 C.ar    1  UNL1        0.0516
     30 C         138.6750  151.4462  155.5570 C.3     1  UNL1        0.2525
     31 O         138.0852  150.0761  155.7145 O.3     1  UNL1       -0.4714
@<TRIPOS>BOND
     1    30    31    1
     2    31    24    1
     3    24    25   ar
     4    25    26   ar
     5    26    27   ar
     6    27    28   ar
     7    28    20    1
     8    20    21   am
     9    21    22    2
    10    21     1    1
    11     1     2   ar
    12     2     3   ar
    13     3     4   ar
    14     6     4    1
    15     6     7    1
    16     7     8    1
    17     8     9    1
    18     9    10    1
    19     9    11    1
    20    12    11    1
    21    12    13    1
    22    13    14    1
    23    14    15    1
    24    15    16    1
    25    15    17    2
    26     4     5   ar
    27    28    29   ar
    28    29    24   ar
    29     5     1   ar
    30    12     6    1
    31    17     6    1
    32    20    23    1
    33    16    18    1
    34    16    19    1
@<TRIPOS>MOLECULE
*****
 31 34 0 0 0
SMALL
GASTEIGER

@<TRIPOS>ATOM
      1 C         140.9812  145.1760  160.3696 C.ar    1  UNL1        0.1033
      2 C         140.0261  145.8989  161.2725 C.ar    1  UNL1        0.1101
      3 N         140.2072  145.3642  162.6623 N.ar    1  UNL1       -0.2391
      4 C         141.2743  144.3108  162.6182 C.ar    1  UNL1        0.1109
      5 S         141.7526  144.1946  161.2013 S.2     1  UNL1       -0.0643
      6 C         141.7751  143.5137  163.7861 C.3     1  UNL1        0.1548
      7 C         142.6348  143.6811  162.5684 C.3     1  UNL1        0.1705
      8 O         143.9952  143.0514  162.5185 O.3     1  UNL1       -0.3538
      9 C         144.4960  142.2543  163.6863 C.3     1  UNL1        0.1155
     10 C         145.8565  141.6246  163.6364 C.3     1  UNL1        0.0320
     11 C         143.6363  142.0869  164.9041 C.3     1  UNL1        0.0328
     12 C         142.2758  142.7167  164.9539 C.3     1  UNL1        0.0426
     13 C         141.4161  142.5493  166.1717 C.3     1  UNL1        0.0673
     14 S         140.0556  143.1790  166.2216 S.3     1  UNL1       -0.0807
     15 C         139.5548  143.9761  165.0537 C.2     1  UNL1        0.1483
     16 N         138.1943  144.6059  165.1036 N.pl3   1  UNL1       -0.3380
     17 N         140.4145  144.1435  163.8360 N.2     1  UNL1       -0.2464
     18 H         137.6300  144.4960  165.9029 H       1  UNL1        0.1442
     19 H         137.8656  145.1290  164.3371 H       1  UNL1        0.1442
     20 N         140.0120  145.0574  157.9621 N.am    1  UNL1       -0.2798
     21 C         141.1374  145.3960  158.8942 C.2     1  UNL1        0.2571
     22 O         142.4191  145.9547  158.3507 O.2     1  UNL1       -0.2692
     23 H         139.1708  144.6908  158.3187 H       1  UNL1        0.1552
     24 C         140.2180  146.8820  154.4436 C.ar    1  UNL1        0.1400
     25 C         140.4809  145.7175  153.5354 C.ar    1  UNL1        0.0370
     26 C         140.5875  144.3330  154.1027 C.ar    1  UNL1        0.0044
     27 C         140.4312  144.1130  155.5783 C.ar    1  UNL1        0.0149
     28 C         140.1683  145.2775  156.4865 C.ar    1  UNL1        0.0536
     29 C         140.0617  146.6620  155.9192 C.ar    1  UNL1        0.0516
     30 C         139.3997  149.3394  154.6458 C.3     1  UNL1        0.2525
     31 O         140.1114  148.2665  153.8763 O.3     1  UNL1       -0.4714
@<TRIPOS>BOND
     1    30    31    1
     2    31    24    1
     3    24    25   ar
     4    25    26   ar
     5    26    27   ar
     6    27    28   ar
     7    28    20    1
     8    20    21   am
     9    21    22    2
    10    21     1    1
    11     1     2   ar
    12     2     3   ar
    13     3     4   ar
    14     6     4    1
    15     6     7    1
    16     7     8    1
    17     8     9    1
    18     9    10    1
    19     9    11    1
    20    12    11    1
    21    12    13    1
    22    13    14    1
    23    14    15    1
    24    15    16    1
    25    15    17    2
    26     4     5   ar
    27    28    29   ar
    28    29    24   ar
    29     5     1   ar
    30    12     6    1
    31    17     6    1
    32    20    23    1
    33    16    18    1
    34    16    19    1
@<TRIPOS>MOLECULE
*****
 31 34 0 0 0
SMALL
GASTEIGER

@<TRIPOS>ATOM
      1 C         138.7933  141.7680  163.8804 C.ar    1  UNL1        0.1033
      2 C         137.3916  142.2080  163.5778 C.ar    1  UNL1        0.1101
      3 N         137.3640  142.7346  162.1734 N.ar    1  UNL1       -0.2391
      4 C         138.7488  142.6199  161.6082 C.ar    1  UNL1        0.1109
      5 S         139.6320  142.0226  162.6632 S.2     1  UNL1       -0.0643
      6 C         139.1753  143.0306  160.2300 C.3     1  UNL1        0.1548
      7 C         138.5101  141.7035  160.4450 C.3     1  UNL1        0.1705
      8 O         138.2715  140.7870  159.2818 O.3     1  UNL1       -0.3538
      9 C         138.6980  141.1976  157.9036 C.3     1  UNL1        0.1155
     10 C         138.4593  140.2811  156.7404 C.3     1  UNL1        0.0320
     11 C         139.3631  142.5248  157.6886 C.3     1  UNL1        0.0328
     12 C         139.6018  143.4412  158.8518 C.3     1  UNL1        0.0426
     13 C         140.2669  144.7684  158.6368 C.3     1  UNL1        0.0673
     14 S         140.5056  145.6849  159.8000 S.3     1  UNL1       -0.0807
     15 C         140.0791  145.2743  161.1782 C.2     1  UNL1        0.1483
     16 N         140.3177  146.1908  162.3414 N.pl3   1  UNL1       -0.3380
     17 N         139.4139  143.9471  161.3932 N.2     1  UNL1       -0.2464
     18 H         140.7543  147.0619  162.2003 H       1  UNL1        0.1442
     19 H         140.0378  145.9213  163.2460 H       1  UNL1        0.1442
     20 N         140.4775  141.7492  165.8585 N.am    1  UNL1       -0.2798
     21 C         139.2721  141.1771  165.1733 C.2     1  UNL1        0.2571
     22 O         138.5453  140.0141  165.7810 O.2     1  UNL1       -0.2692
     23 H         140.9545  142.5126  165.4596 H       1  UNL1        0.1552
     24 C         140.8848  141.0677  169.7469 C.ar    1  UNL1        0.1400
     25 C         141.9138  139.9764  169.7372 C.ar    1  UNL1        0.0370
     26 C         142.4641  139.4760  168.4346 C.ar    1  UNL1        0.0044
     27 C         141.9854  140.0670  167.1417 C.ar    1  UNL1        0.0149
     28 C         140.9563  141.1583  167.1514 C.ar    1  UNL1        0.0536
     29 C         140.4060  141.6587  168.4540 C.ar    1  UNL1        0.0516
     30 C         139.6089  142.8798  171.1028 C.3     1  UNL1        0.2525
     31 O         140.3345  141.5681  171.0496 O.3     1  UNL1       -0.4714
@<TRIPOS>BOND
     1    30    31    1
     2    31    24    1
     3    24    25   ar
     4    25    26   ar
     5    26    27   ar
     6    27    28   ar
     7    28    20    1
     8    20    21   am
     9    21    22    2
    10    21     1    1
    11     1     2   ar
    12     2     3   ar
    13     3     4   ar
    14     6     4    1
    15     6     7    1
    16     7     8    1
    17     8     9    1
    18     9    10    1
    19     9    11    1
    20    12    11    1
    21    12    13    1
    22    13    14    1
    23    14    15    1
    24    15    16    1
    25    15    17    2
    26     4     5   ar
    27    28    29   ar
    28    29    24   ar
    29     5     1   ar
    30    12     6    1
    31    17     6    1
    32    20    23    1
    33    16    18    1
    34    16    19    1
