@<TRIPOS>MOLECULE
*****
 24 27 0 0 0
SMALL
GASTEIGER

@<TRIPOS>ATOM
      1 O         142.8308  141.1348  167.0526 O.3     1  UNL1       -0.4639
      2 C         139.9857  139.7405  167.5639 C.3     1  UNL1        0.0329
      3 C         140.2113  140.4496  168.8663 C.ar    1  UNL1        0.0047
      4 C         139.2832  140.4457  170.0447 C.ar    1  UNL1        0.0965
      5 N         139.9030  141.2808  171.1256 N.ar    1  UNL1       -0.2271
      6 C         141.2141  141.8009  170.6153 C.ar    1  UNL1        0.1459
      7 N         142.2591  142.6759  171.2416 N.ar    1  UNL1       -0.3213
      8 C         143.4946  143.0372  170.4717 C.ar    1  UNL1        0.1791
      9 N         143.6852  142.5235  169.0753 N.ar    1  UNL1       -0.1912
     10 C         142.6402  141.6485  168.4489 C.ar    1  UNL1        0.2287
     11 C         141.4047  141.2872  169.2189 C.ar    1  UNL1        0.0846
     12 H         142.1340  143.0131  172.1581 H       1  UNL1        0.1689
     13 C         142.3344  141.9348  165.8849 C.3     1  UNL1        0.1676
     14 C         141.1513  142.8427  166.0464 C.3     1  UNL1        0.0450
     15 C         140.6549  143.6427  164.8787 C.3     1  UNL1        0.0197
     16 C         141.3415  143.5348  163.5494 C.3     1  UNL1        0.0579
     17 C         142.5245  142.6269  163.3879 C.3     1  UNL1        0.0197
     18 C         143.0210  141.8269  164.5556 C.3     1  UNL1        0.0450
     19 N         140.8451  144.3348  162.3817 N.3     1  UNL1       -0.2698
     20 C         141.1892  143.9140  160.9837 C.3     1  UNL1        0.1046
     21 C         140.6927  144.7140  159.8160 C.3     1  UNL1        0.1595
     22 O         139.8522  145.9349  160.0464 O.3     1  UNL1       -0.3508
     23 C         139.5081  146.3557  161.4444 C.3     1  UNL1        0.1595
     24 C         140.0045  145.5556  162.6120 C.3     1  UNL1        0.1046
@<TRIPOS>BOND
     1     2     3    1
     2     3     4   ar
     3     4     5   ar
     4     5     6   ar
     5     6     7   ar
     6     7     8   ar
     7     8     9   ar
     8     9    10   ar
     9    10     1    1
    10    13     1    1
    11    13    14    1
    12    14    15    1
    13    15    16    1
    14    16    19    1
    15    19    20    1
    16    20    21    1
    17    21    22    1
    18    22    23    1
    19    23    24    1
    20    16    17    1
    21    17    18    1
    22    10    11   ar
    23    11     3   ar
    24    11     6    1
    25    18    13    1
    26    24    19    1
    27     7    12    1
@<TRIPOS>MOLECULE
*****
 24 27 0 0 0
SMALL
GASTEIGER

@<TRIPOS>ATOM
      1 O         141.6007  137.3526  163.8209 O.3     1  UNL1       -0.4639
      2 C         138.6769  137.7726  162.5661 C.3     1  UNL1        0.0329
      3 C         139.5550  138.2625  161.4529 C.ar    1  UNL1        0.0047
      4 C         139.0880  138.7936  160.1301 C.ar    1  UNL1        0.0965
      5 N         140.2986  139.1666  159.3269 N.ar    1  UNL1       -0.2271
      6 C         141.5139  138.8660  160.1532 C.ar    1  UNL1        0.1459
      7 N         142.9795  139.0289  159.8790 N.ar    1  UNL1       -0.3213
      8 C         143.9856  138.6330  160.9187 C.ar    1  UNL1        0.1791
      9 N         143.5260  138.0742  162.2327 N.ar    1  UNL1       -0.1912
     10 C         142.0603  137.9113  162.5069 C.ar    1  UNL1        0.2287
     11 C         141.0543  138.3072  161.4672 C.ar    1  UNL1        0.0846
     12 H         143.2811  139.3956  159.0166 H       1  UNL1        0.1689
     13 C         141.6619  138.1984  165.0582 C.3     1  UNL1        0.1676
     14 C         140.4544  138.9719  165.4983 C.3     1  UNL1        0.0450
     15 C         140.5155  139.8177  166.7356 C.3     1  UNL1        0.0197
     16 C         141.7841  139.8900  167.5327 C.3     1  UNL1        0.0579
     17 C         142.9916  139.1166  167.0926 C.3     1  UNL1        0.0197
     18 C         142.9305  138.2707  165.8553 C.3     1  UNL1        0.0450
     19 N         141.8452  140.7359  168.7700 N.3     1  UNL1       -0.2698
     20 C         141.0103  140.3795  169.9641 C.3     1  UNL1        0.1046
     21 C         141.0715  141.2254  171.2014 C.3     1  UNL1        0.1595
     22 O         141.9674  142.4276  171.2444 O.3     1  UNL1       -0.3508
     23 C         142.8022  142.7840  170.0503 C.3     1  UNL1        0.1595
     24 C         142.7411  141.9382  168.8131 C.3     1  UNL1        0.1046
@<TRIPOS>BOND
     1     2     3    1
     2     3     4   ar
     3     4     5   ar
     4     5     6   ar
     5     6     7   ar
     6     7     8   ar
     7     8     9   ar
     8     9    10   ar
     9    10     1    1
    10    13     1    1
    11    13    14    1
    12    14    15    1
    13    15    16    1
    14    16    19    1
    15    19    20    1
    16    20    21    1
    17    21    22    1
    18    22    23    1
    19    23    24    1
    20    16    17    1
    21    17    18    1
    22    10    11   ar
    23    11     3   ar
    24    11     6    1
    25    18    13    1
    26    24    19    1
    27     7    12    1
@<TRIPOS>MOLECULE
*****
 24 27 0 0 0
SMALL
GASTEIGER

@<TRIPOS>ATOM
      1 O         141.1829  140.2272  166.8052 O.3     1  UNL1       -0.4639
      2 C         143.4196  142.2838  167.8385 C.3     1  UNL1        0.0329
      3 C         142.4832  142.2447  169.0097 C.ar    1  UNL1        0.0047
      4 C         142.6411  143.0089  170.2906 C.ar    1  UNL1        0.0965
      5 N         141.4799  142.6710  171.1781 N.ar    1  UNL1       -0.2271
      6 C         140.6044  141.6979  170.4456 C.ar    1  UNL1        0.1459
      7 N         139.3228  141.0177  170.8257 N.ar    1  UNL1       -0.3213
      8 C         138.6612  140.0740  169.8657 C.ar    1  UNL1        0.1791
      9 N         139.2812  139.8105  168.5255 N.ar    1  UNL1       -0.1912
     10 C         140.5629  140.4907  168.1454 C.ar    1  UNL1        0.2287
     11 C         141.2245  141.4344  169.1054 C.ar    1  UNL1        0.0846
     12 H         138.9158  141.1906  171.7054 H       1  UNL1        0.1689
     13 C         140.9463  141.1779  165.6693 C.3     1  UNL1        0.1676
     14 C         140.1669  142.4392  165.8970 C.3     1  UNL1        0.0450
     15 C         139.9302  143.3899  164.7611 C.3     1  UNL1        0.0197
     16 C         140.4729  143.0793  163.3976 C.3     1  UNL1        0.0579
     17 C         141.2522  141.8181  163.1700 C.3     1  UNL1        0.0197
     18 C         141.4889  140.8673  164.3059 C.3     1  UNL1        0.0450
     19 N         140.2362  144.0301  162.2618 N.3     1  UNL1       -0.2698
     20 C         140.4340  143.5725  160.8471 C.3     1  UNL1        0.1046
     21 C         140.1973  144.5232  159.7113 C.3     1  UNL1        0.1595
     22 O         139.7627  145.9315  159.9902 O.3     1  UNL1       -0.3508
     23 C         139.5649  146.3891  161.4049 C.3     1  UNL1        0.1595
     24 C         139.8016  145.4384  162.5407 C.3     1  UNL1        0.1046
@<TRIPOS>BOND
     1     2     3    1
     2     3     4   ar
     3     4     5   ar
     4     5     6   ar
     5     6     7   ar
     6     7     8   ar
     7     8     9   ar
     8     9    10   ar
     9    10     1    1
    10    13     1    1
    11    13    14    1
    12    14    15    1
    13    15    16    1
    14    16    19    1
    15    19    20    1
    16    20    21    1
    17    21    22    1
    18    22    23    1
    19    23    24    1
    20    16    17    1
    21    17    18    1
    22    10    11   ar
    23    11     3   ar
    24    11     6    1
    25    18    13    1
    26    24    19    1
    27     7    12    1
@<TRIPOS>MOLECULE
*****
 24 27 0 0 0
SMALL
GASTEIGER

@<TRIPOS>ATOM
      1 O         138.2552  138.5163  163.8549 O.3     1  UNL1       -0.4639
      2 C         141.1351  137.1006  163.8075 C.3     1  UNL1        0.0329
      3 C         141.1000  137.7559  162.4587 C.ar    1  UNL1        0.0047
      4 C         142.1851  137.7032  161.4244 C.ar    1  UNL1        0.0965
      5 N         141.7294  138.4937  160.2339 N.ar    1  UNL1       -0.2271
      6 C         140.3627  139.0351  160.5324 C.ar    1  UNL1        0.1459
      7 N         139.4222  139.8843  159.7298 N.ar    1  UNL1       -0.3213
      8 C         138.0927  140.2775  160.3022 C.ar    1  UNL1        0.1791
      9 N         137.7037  139.8215  161.6773 N.ar    1  UNL1       -0.1912
     10 C         138.6442  138.9723  162.4799 C.ar    1  UNL1        0.2287
     11 C         139.9737  138.5791  161.9074 C.ar    1  UNL1        0.0846
     12 H         139.6775  140.1836  158.8273 H       1  UNL1        0.1689
     13 C         138.7721  139.2438  165.0605 C.3     1  UNL1        0.1676
     14 C         139.6900  140.4181  164.8916 C.3     1  UNL1        0.0450
     15 C         140.2068  141.1456  166.0972 C.3     1  UNL1        0.0197
     16 C         139.8058  140.6989  167.4718 C.3     1  UNL1        0.0579
     17 C         138.8879  139.5246  167.6408 C.3     1  UNL1        0.0197
     18 C         138.3710  138.7970  166.4351 C.3     1  UNL1        0.0450
     19 N         140.3227  141.4264  168.6775 N.3     1  UNL1       -0.2698
     20 C         140.7778  140.6553  169.8808 C.3     1  UNL1        0.1046
     21 C         141.2946  141.3829  171.0864 C.3     1  UNL1        0.1595
     22 O         141.3563  142.8816  171.0886 O.3     1  UNL1       -0.3508
     23 C         140.9012  143.6527  169.8853 C.3     1  UNL1        0.1595
     24 C         140.3844  142.9252  168.6797 C.3     1  UNL1        0.1046
@<TRIPOS>BOND
     1     2     3    1
     2     3     4   ar
     3     4     5   ar
     4     5     6   ar
     5     6     7   ar
     6     7     8   ar
     7     8     9   ar
     8     9    10   ar
     9    10     1    1
    10    13     1    1
    11    13    14    1
    12    14    15    1
    13    15    16    1
    14    16    19    1
    15    19    20    1
    16    20    21    1
    17    21    22    1
    18    22    23    1
    19    23    24    1
    20    16    17    1
    21    17    18    1
    22    10    11   ar
    23    11     3   ar
    24    11     6    1
    25    18    13    1
    26    24    19    1
    27     7    12    1
@<TRIPOS>MOLECULE
*****
 24 27 0 0 0
SMALL
GASTEIGER

@<TRIPOS>ATOM
      1 O         144.5468  138.9275  163.7930 O.3     1  UNL1       -0.4639
      2 C         145.6930  141.8870  163.3161 C.3     1  UNL1        0.0329
      3 C         144.9369  141.6487  162.0428 C.ar    1  UNL1        0.0047
      4 C         144.8097  142.6114  160.8995 C.ar    1  UNL1        0.0965
      5 N         143.9694  141.9635  159.8393 N.ar    1  UNL1       -0.2271
      6 C         143.5773  140.6004  160.3273 C.ar    1  UNL1        0.1459
      7 N         142.7530  139.5112  159.7075 N.ar    1  UNL1       -0.3213
      8 C         142.5267  138.2274  160.4495 C.ar    1  UNL1        0.1791
      9 N         143.1246  138.0328  161.8113 N.ar    1  UNL1       -0.1912
     10 C         143.9489  139.1220  162.4311 C.ar    1  UNL1        0.2287
     11 C         144.1752  140.4058  161.6891 C.ar    1  UNL1        0.0846
     12 H         142.3605  139.6389  158.8136 H       1  UNL1        0.1689
     13 C         143.7475  139.2609  165.0177 C.3     1  UNL1        0.1676
     14 C         142.8312  140.4485  165.0149 C.3     1  UNL1        0.0450
     15 C         142.0319  140.7819  166.2396 C.3     1  UNL1        0.0197
     16 C         142.1489  139.9278  167.4671 C.3     1  UNL1        0.0579
     17 C         143.0652  138.7403  167.4699 C.3     1  UNL1        0.0197
     18 C         143.8646  138.4068  166.2452 C.3     1  UNL1        0.0450
     19 N         141.3495  140.2613  168.6918 N.3     1  UNL1       -0.2698
     20 C         142.0445  140.7233  169.9382 C.3     1  UNL1        0.1046
     21 C         141.2451  141.0567  171.1628 C.3     1  UNL1        0.1595
     22 O         139.7508  140.9282  171.1411 O.3     1  UNL1       -0.3508
     23 C         139.0558  140.4662  169.8947 C.3     1  UNL1        0.1595
     24 C         139.8552  140.1328  168.6700 C.3     1  UNL1        0.1046
@<TRIPOS>BOND
     1     2     3    1
     2     3     4   ar
     3     4     5   ar
     4     5     6   ar
     5     6     7   ar
     6     7     8   ar
     7     8     9   ar
     8     9    10   ar
     9    10     1    1
    10    13     1    1
    11    13    14    1
    12    14    15    1
    13    15    16    1
    14    16    19    1
    15    19    20    1
    16    20    21    1
    17    21    22    1
    18    22    23    1
    19    23    24    1
    20    16    17    1
    21    17    18    1
    22    10    11   ar
    23    11     3   ar
    24    11     6    1
    25    18    13    1
    26    24    19    1
    27     7    12    1
@<TRIPOS>MOLECULE
*****
 24 27 0 0 0
SMALL
GASTEIGER

@<TRIPOS>ATOM
      1 O         139.1586  142.3176  162.9036 O.3     1  UNL1       -0.4639
      2 C         141.7600  140.5258  162.3360 C.3     1  UNL1        0.0329
      3 C         142.1324  141.8164  161.6683 C.ar    1  UNL1        0.0047
      4 C         143.4169  142.0970  160.9464 C.ar    1  UNL1        0.0965
      5 N         143.3640  143.5070  160.4373 N.ar    1  UNL1       -0.2271
      6 C         142.0468  144.0978  160.8447 C.ar    1  UNL1        0.1459
      7 N         141.4422  145.4522  160.6211 N.ar    1  UNL1       -0.3213
      8 C         140.0763  145.7617  161.1584 C.ar    1  UNL1        0.1791
      9 N         139.3152  144.7168  161.9192 N.ar    1  UNL1       -0.1912
     10 C         139.9198  143.3624  162.1428 C.ar    1  UNL1        0.2287
     11 C         141.2856  143.0529  161.6055 C.ar    1  UNL1        0.0846
     12 H         141.9418  146.1379  160.1218 H       1  UNL1        0.1689
     13 C         139.4443  142.0924  164.3588 C.3     1  UNL1        0.1676
     14 C         139.1203  140.7712  164.9910 C.3     1  UNL1        0.0450
     15 C         139.4060  140.5460  166.4462 C.3     1  UNL1        0.0197
     16 C         140.0156  141.6419  167.2692 C.3     1  UNL1        0.0579
     17 C         140.3396  142.9630  166.6371 C.3     1  UNL1        0.0197
     18 C         140.0539  143.1883  165.1818 C.3     1  UNL1        0.0450
     19 N         140.3013  141.4167  168.7245 N.3     1  UNL1       -0.2698
     20 C         141.2181  142.3472  169.4616 C.3     1  UNL1        0.1046
     21 C         141.5037  142.1220  170.9168 C.3     1  UNL1        0.1595
     22 O         140.8725  140.9661  171.6349 O.3     1  UNL1       -0.3508
     23 C         139.9556  140.0356  170.8978 C.3     1  UNL1        0.1595
     24 C         139.6700  140.2609  169.4426 C.3     1  UNL1        0.1046
@<TRIPOS>BOND
     1     2     3    1
     2     3     4   ar
     3     4     5   ar
     4     5     6   ar
     5     6     7   ar
     6     7     8   ar
     7     8     9   ar
     8     9    10   ar
     9    10     1    1
    10    13     1    1
    11    13    14    1
    12    14    15    1
    13    15    16    1
    14    16    19    1
    15    19    20    1
    16    20    21    1
    17    21    22    1
    18    22    23    1
    19    23    24    1
    20    16    17    1
    21    17    18    1
    22    10    11   ar
    23    11     3   ar
    24    11     6    1
    25    18    13    1
    26    24    19    1
    27     7    12    1
@<TRIPOS>MOLECULE
*****
 24 27 0 0 0
SMALL
GASTEIGER

@<TRIPOS>ATOM
      1 O         143.9266  143.4573  163.2894 O.3     1  UNL1       -0.4639
      2 C         144.9134  140.4037  163.2432 C.3     1  UNL1        0.0329
      3 C         144.2390  140.5219  161.9086 C.ar    1  UNL1        0.0047
      4 C         144.1119  139.4325  160.8854 C.ar    1  UNL1        0.0965
      5 N         143.3676  139.9876  159.7073 N.ar    1  UNL1       -0.2271
      6 C         143.0348  141.4201  160.0024 C.ar    1  UNL1        0.1459
      7 N         142.3109  142.4665  159.2080 N.ar    1  UNL1       -0.3213
      8 C         142.1256  143.8431  159.7741 C.ar    1  UNL1        0.1791
      9 N         142.6642  144.1734  161.1346 N.ar    1  UNL1       -0.1912
     10 C         143.3880  143.1270  161.9290 C.ar    1  UNL1        0.2287
     11 C         143.5733  141.7504  161.3628 C.ar    1  UNL1        0.0846
     12 H         141.9575  142.2498  158.3151 H       1  UNL1        0.1689
     13 C         143.1259  143.1258  164.5138 C.3     1  UNL1        0.1676
     14 C         143.8191  142.6614  165.7603 C.3     1  UNL1        0.0450
     15 C         143.0184  142.3299  166.9846 C.3     1  UNL1        0.0197
     16 C         141.5245  142.4629  166.9625 C.3     1  UNL1        0.0579
     17 C         140.8312  142.9274  165.7160 C.3     1  UNL1        0.0197
     18 C         141.6319  143.2588  164.4916 C.3     1  UNL1        0.0450
     19 N         140.7238  142.1315  168.1869 N.3     1  UNL1       -0.2698
     20 C         140.0734  140.7860  168.3162 C.3     1  UNL1        0.1046
     21 C         139.2728  140.4546  169.5406 C.3     1  UNL1        0.1595
     22 O         139.1225  141.4687  170.6356 O.3     1  UNL1       -0.3508
     23 C         139.7728  142.8141  170.5063 C.3     1  UNL1        0.1595
     24 C         140.5735  143.1455  169.2819 C.3     1  UNL1        0.1046
@<TRIPOS>BOND
     1     2     3    1
     2     3     4   ar
     3     4     5   ar
     4     5     6   ar
     5     6     7   ar
     6     7     8   ar
     7     8     9   ar
     8     9    10   ar
     9    10     1    1
    10    13     1    1
    11    13    14    1
    12    14    15    1
    13    15    16    1
    14    16    19    1
    15    19    20    1
    16    20    21    1
    17    21    22    1
    18    22    23    1
    19    23    24    1
    20    16    17    1
    21    17    18    1
    22    10    11   ar
    23    11     3   ar
    24    11     6    1
    25    18    13    1
    26    24    19    1
    27     7    12    1
@<TRIPOS>MOLECULE
*****
 24 27 0 0 0
SMALL
GASTEIGER

@<TRIPOS>ATOM
      1 O         143.0337  142.4766  163.1689 O.3     1  UNL1       -0.4639
      2 C         142.0936  145.4852  163.7726 C.3     1  UNL1        0.0329
      3 C         141.1970  145.1139  162.6288 C.ar    1  UNL1        0.0047
      4 C         140.1587  145.9954  162.0003 C.ar    1  UNL1        0.0965
      5 N         139.5013  145.2221  160.8958 N.ar    1  UNL1       -0.2271
      6 C         140.1332  143.8628  160.8418 C.ar    1  UNL1        0.1459
      7 N         139.8897  142.6773  159.9556 N.ar    1  UNL1       -0.3213
      8 C         140.6942  141.4249  160.1406 C.ar    1  UNL1        0.1791
      9 N         141.7422  141.3580  161.2117 N.ar    1  UNL1       -0.1912
     10 C         141.9857  142.5435  162.0978 C.ar    1  UNL1        0.2287
     11 C         141.1812  143.7959  161.9128 C.ar    1  UNL1        0.0846
     12 H         139.2018  142.7212  159.2526 H       1  UNL1        0.1689
     13 C         142.6376  142.2042  164.5898 C.3     1  UNL1        0.1676
     14 C         141.2858  141.6299  164.8946 C.3     1  UNL1        0.0450
     15 C         140.8897  141.3575  166.3155 C.3     1  UNL1        0.0197
     16 C         141.8454  141.6595  167.4315 C.3     1  UNL1        0.0579
     17 C         143.1971  142.2338  167.1267 C.3     1  UNL1        0.0197
     18 C         143.5932  142.5062  165.7058 C.3     1  UNL1        0.0450
     19 N         141.4492  141.3871  168.8525 N.3     1  UNL1       -0.2698
     20 C         140.4610  140.3016  169.1606 C.3     1  UNL1        0.1046
     21 C         140.0649  140.0293  170.5815 C.3     1  UNL1        0.1595
     22 O         140.6571  140.8424  171.6942 O.3     1  UNL1       -0.3508
     23 C         141.6453  141.9279  171.3860 C.3     1  UNL1        0.1595
     24 C         142.0414  142.2002  169.9652 C.3     1  UNL1        0.1046
@<TRIPOS>BOND
     1     2     3    1
     2     3     4   ar
     3     4     5   ar
     4     5     6   ar
     5     6     7   ar
     6     7     8   ar
     7     8     9   ar
     8     9    10   ar
     9    10     1    1
    10    13     1    1
    11    13    14    1
    12    14    15    1
    13    15    16    1
    14    16    19    1
    15    19    20    1
    16    20    21    1
    17    21    22    1
    18    22    23    1
    19    23    24    1
    20    16    17    1
    21    17    18    1
    22    10    11   ar
    23    11     3   ar
    24    11     6    1
    25    18    13    1
    26    24    19    1
    27     7    12    1
@<TRIPOS>MOLECULE
*****
 24 27 0 0 0
SMALL
GASTEIGER

@<TRIPOS>ATOM
      1 O         139.0556  138.1619  163.6701 O.3     1  UNL1       -0.4639
      2 C         137.4829  140.8941  163.0686 C.3     1  UNL1        0.0329
      3 C         138.4586  140.8520  161.9301 C.ar    1  UNL1        0.0047
      4 C         138.5866  141.8747  160.8403 C.ar    1  UNL1        0.0965
      5 N         139.6848  141.4345  159.9182 N.ar    1  UNL1       -0.2271
      6 C         140.2355  140.1397  160.4381 C.ar    1  UNL1        0.1459
      7 N         141.3291  139.2421  159.9399 N.ar    1  UNL1       -0.3213
      8 C         141.6648  137.9844  160.6851 C.ar    1  UNL1        0.1791
      9 N         140.9070  137.6243  161.9285 N.ar    1  UNL1       -0.1912
     10 C         139.8134  138.5220  162.4267 C.ar    1  UNL1        0.2287
     11 C         139.4777  139.7797  161.6815 C.ar    1  UNL1        0.0846
     12 H         141.8264  139.4784  159.1238 H       1  UNL1        0.1689
     13 C         139.4616  138.7450  164.9912 C.3     1  UNL1        0.1676
     14 C         140.8877  139.1456  165.2277 C.3     1  UNL1        0.0450
     15 C         141.2937  139.7287  166.5487 C.3     1  UNL1        0.0197
     16 C         140.2737  139.9111  167.6333 C.3     1  UNL1        0.0579
     17 C         138.8477  139.5105  167.3968 C.3     1  UNL1        0.0197
     18 C         138.4416  138.9274  166.0757 C.3     1  UNL1        0.0450
     19 N         140.6797  140.4942  168.9544 N.3     1  UNL1       -0.2698
     20 C         139.9378  141.6713  169.5145 C.3     1  UNL1        0.1046
     21 C         140.3438  142.2544  170.8355 C.3     1  UNL1        0.1595
     22 O         141.4919  141.6602  171.5964 O.3     1  UNL1       -0.3508
     23 C         142.2338  140.4831  171.0363 C.3     1  UNL1        0.1595
     24 C         141.8278  139.9001  169.7153 C.3     1  UNL1        0.1046
@<TRIPOS>BOND
     1     2     3    1
     2     3     4   ar
     3     4     5   ar
     4     5     6   ar
     5     6     7   ar
     6     7     8   ar
     7     8     9   ar
     8     9    10   ar
     9    10     1    1
    10    13     1    1
    11    13    14    1
    12    14    15    1
    13    15    16    1
    14    16    19    1
    15    19    20    1
    16    20    21    1
    17    21    22    1
    18    22    23    1
    19    23    24    1
    20    16    17    1
    21    17    18    1
    22    10    11   ar
    23    11     3   ar
    24    11     6    1
    25    18    13    1
    26    24    19    1
    27     7    12    1
