@<TRIPOS>MOLECULE
*****
 35 40 0 0 0
SMALL
GASTEIGER

@<TRIPOS>ATOM
      1 C         140.1414  145.8417  155.1852 C.2     1  UNL1        0.2301
      2 O         140.8064  145.3601  153.9299 O.2     1  UNL1       -0.2745
      3 N         140.6702  145.4188  156.5238 N.am    1  UNL1       -0.2793
      4 C         141.8640  144.5145  156.6070 C.3     1  UNL1        0.0935
      5 C         142.3927  144.0917  157.9454 C.3     1  UNL1        0.0242
      6 C         141.7277  144.5733  159.2008 C.3     1  UNL1        0.0328
      7 C         140.5339  145.4777  159.1176 C.3     1  UNL1        0.0242
      8 C         140.0052  145.9004  157.7791 C.3     1  UNL1        0.0935
      9 C         142.8605  143.7085  159.6688 C.3     1  UNL1        0.0737
     10 N         142.4756  143.9753  161.0938 N.3     1  UNL1       -0.2702
     11 C         141.3428  144.8401  160.6258 C.3     1  UNL1        0.0737
     12 C         143.0043  143.5525  162.4323 C.3     1  UNL1        0.0801
     13 C         144.4494  143.3764  162.7938 C.3     1  UNL1        0.0251
     14 C         144.5191  142.9467  164.2292 C.3     1  UNL1        0.0278
     15 C         143.1170  142.8572  164.7548 C.ar    1  UNL1       -0.0247
     16 C         142.5718  142.4831  166.1012 C.ar    1  UNL1       -0.0015
     17 C         141.0905  142.4835  166.3371 C.ar    1  UNL1        0.0355
     18 C         140.1544  142.8579  165.2265 C.ar    1  UNL1        0.0027
     19 C         140.6995  143.2320  163.8801 C.ar    1  UNL1       -0.0032
     20 C         142.1809  143.2316  163.6442 C.ar    1  UNL1       -0.0117
     21 C         140.5454  142.1094  167.6835 C.ar    1  UNL1        0.1622
     22 N         139.9938  140.7336  167.9136 N.ar    1  UNL1       -0.2250
     23 C         139.4487  140.3596  169.2600 C.ar    1  UNL1        0.1022
     24 C         139.4552  141.3614  170.3765 C.ar    1  UNL1        0.0414
     25 C         140.0068  142.7372  170.1464 C.ar    1  UNL1        0.1022
     26 N         140.5519  143.1112  168.7999 N.ar    1  UNL1       -0.2250
     27 C         138.9476  146.7461  155.1021 C.3     1  UNL1        0.1116
     28 C         139.5112  151.2082  154.9545 C.ar    1  UNL1        0.1387
     29 C         138.6726  150.5935  156.0356 C.ar    1  UNL1        0.0366
     30 C         138.4847  149.1062  156.0848 C.ar    1  UNL1       -0.0007
     31 C         139.1355  148.2335  155.0529 C.ar    1  UNL1       -0.0129
     32 C         139.9741  148.8482  153.9718 C.ar    1  UNL1       -0.0007
     33 C         140.1620  150.3355  153.9226 C.ar    1  UNL1        0.0366
     34 C         138.5047  153.6030  154.9106 C.3     1  UNL1        0.2525
     35 O         139.6991  152.6956  154.9053 O.3     1  UNL1       -0.4714
@<TRIPOS>BOND
     1    34    35    1
     2    35    28    1
     3    28    29   ar
     4    29    30   ar
     5    30    31   ar
     6    31    27    1
     7    27     1    1
     8     1     2    2
     9     1     3   am
    10     3     4    1
    11     4     5    1
    12     5     6    1
    13     6     7    1
    14     7     8    1
    15     6     9    1
    16     9    10    1
    17    12    10    1
    18    12    13    1
    19    13    14    1
    20    14    15    1
    21    15    16   ar
    22    16    17   ar
    23    17    21    1
    24    21    22   ar
    25    22    23   ar
    26    23    24   ar
    27    24    25   ar
    28    25    26   ar
    29    17    18   ar
    30    18    19   ar
    31    19    20   ar
    32    10    11    1
    33    31    32   ar
    34    32    33   ar
    35    33    28   ar
    36     8     3    1
    37    20    12    1
    38    11     6    1
    39    20    15   ar
    40    26    21   ar
@<TRIPOS>MOLECULE
*****
 35 40 0 0 0
SMALL
GASTEIGER

@<TRIPOS>ATOM
      1 C         144.6991  141.6377  162.7045 C.2     1  UNL1        0.2301
      2 O         144.8073  143.1130  162.4560 O.2     1  UNL1       -0.2745
      3 N         144.2032  140.7287  161.6191 N.am    1  UNL1       -0.2793
      4 C         143.8154  141.2951  160.2854 C.3     1  UNL1        0.0935
      5 C         143.3195  140.3861  159.2002 C.3     1  UNL1        0.0242
      6 C         143.2114  138.9108  159.4487 C.3     1  UNL1        0.0328
      7 C         143.5991  138.3444  160.7824 C.3     1  UNL1        0.0242
      8 C         144.0951  139.2534  161.8676 C.3     1  UNL1        0.0935
      9 C         142.7465  139.1015  158.0353 C.3     1  UNL1        0.0737
     10 N         142.5100  137.6252  157.9138 N.3     1  UNL1       -0.2702
     11 C         142.9748  137.4345  159.3271 C.3     1  UNL1        0.0737
     12 C         142.0141  136.7162  156.8286 C.3     1  UNL1        0.0801
     13 C         140.8524  136.9825  155.9178 C.3     1  UNL1        0.0251
     14 C         140.7131  135.8122  154.9899 C.3     1  UNL1        0.0278
     15 C         141.7888  134.8228  155.3271 C.ar    1  UNL1       -0.0247
     16 C         142.1400  133.4851  154.7463 C.ar    1  UNL1       -0.0015
     17 C         143.2953  132.7062  155.3018 C.ar    1  UNL1        0.0355
     18 C         144.0994  133.2650  156.4381 C.ar    1  UNL1        0.0027
     19 C         143.7482  134.6025  157.0190 C.ar    1  UNL1       -0.0032
     20 C         142.5928  135.3815  156.4635 C.ar    1  UNL1       -0.0117
     21 C         143.6465  131.3686  154.7209 C.ar    1  UNL1        0.1622
     22 N         143.1136  130.9715  153.3762 N.ar    1  UNL1       -0.2250
     23 C         143.4648  129.6339  152.7954 C.ar    1  UNL1        0.1022
     24 C         144.3490  128.6933  153.5592 C.ar    1  UNL1        0.0414
     25 C         144.8820  129.0904  154.9039 C.ar    1  UNL1        0.1022
     26 N         144.5307  130.4280  155.4847 N.ar    1  UNL1       -0.2250
     27 C         145.0869  141.0714  164.0382 C.3     1  UNL1        0.1116
     28 C         141.9518  140.4031  167.1965 C.ar    1  UNL1        0.1387
     29 C         142.3527  141.7990  166.8211 C.ar    1  UNL1        0.0366
     30 C         143.3977  142.0217  165.7684 C.ar    1  UNL1       -0.0007
     31 C         144.0418  140.8486  165.0910 C.ar    1  UNL1       -0.0129
     32 C         143.6409  139.4528  165.4663 C.ar    1  UNL1       -0.0007
     33 C         142.5959  139.2300  166.5191 C.ar    1  UNL1        0.0366
     34 C         139.4917  139.8830  167.8503 C.3     1  UNL1        0.2525
     35 O         140.9068  140.1804  168.2493 O.3     1  UNL1       -0.4714
@<TRIPOS>BOND
     1    34    35    1
     2    35    28    1
     3    28    29   ar
     4    29    30   ar
     5    30    31   ar
     6    31    27    1
     7    27     1    1
     8     1     2    2
     9     1     3   am
    10     3     4    1
    11     4     5    1
    12     5     6    1
    13     6     7    1
    14     7     8    1
    15     6     9    1
    16     9    10    1
    17    12    10    1
    18    12    13    1
    19    13    14    1
    20    14    15    1
    21    15    16   ar
    22    16    17   ar
    23    17    21    1
    24    21    22   ar
    25    22    23   ar
    26    23    24   ar
    27    24    25   ar
    28    25    26   ar
    29    17    18   ar
    30    18    19   ar
    31    19    20   ar
    32    10    11    1
    33    31    32   ar
    34    32    33   ar
    35    33    28   ar
    36     8     3    1
    37    20    12    1
    38    11     6    1
    39    20    15   ar
    40    26    21   ar
@<TRIPOS>MOLECULE
*****
 35 40 0 0 0
SMALL
GASTEIGER

@<TRIPOS>ATOM
      1 C         138.9389  144.7855  155.5951 C.2     1  UNL1        0.2301
      2 O         137.8647  144.5948  154.5656 O.2     1  UNL1       -0.2745
      3 N         138.9629  143.9236  156.8226 N.am    1  UNL1       -0.2793
      4 C         137.9126  142.8711  157.0206 C.3     1  UNL1        0.0935
      5 C         137.9366  142.0093  158.2480 C.3     1  UNL1        0.0242
      6 C         139.0108  142.2000  159.2775 C.3     1  UNL1        0.0328
      7 C         140.0610  143.2525  159.0795 C.3     1  UNL1        0.0242
      8 C         140.0371  144.1143  157.8520 C.3     1  UNL1        0.0935
      9 C         138.1605  141.0831  159.8060 C.3     1  UNL1        0.0737
     10 N         139.0447  140.9812  161.0135 N.3     1  UNL1       -0.2702
     11 C         139.8950  142.0981  160.4849 C.3     1  UNL1        0.0737
     12 C         139.0687  140.1194  162.2409 C.3     1  UNL1        0.0801
     13 C         138.8025  138.6439  162.2876 C.3     1  UNL1        0.0251
     14 C         138.9323  138.1943  163.7127 C.3     1  UNL1        0.0278
     15 C         139.2788  139.3919  164.5468 C.ar    1  UNL1       -0.0247
     16 C         139.5284  139.5528  166.0171 C.ar    1  UNL1       -0.0015
     17 C         139.8623  140.9034  166.5777 C.ar    1  UNL1        0.0355
     18 C         139.9466  142.0931  165.6681 C.ar    1  UNL1        0.0027
     19 C         139.6970  141.9323  164.1979 C.ar    1  UNL1       -0.0032
     20 C         139.3630  140.5816  163.6371 C.ar    1  UNL1       -0.0117
     21 C         140.1120  141.0643  168.0481 C.ar    1  UNL1        0.1622
     22 N         140.5052  142.4024  168.6002 N.ar    1  UNL1       -0.2250
     23 C         140.7548  142.5631  170.0704 C.ar    1  UNL1        0.1022
     24 C         140.6112  141.3857  170.9887 C.ar    1  UNL1        0.0414
     25 C         140.2180  140.0476  170.4366 C.ar    1  UNL1        0.1022
     26 N         139.9684  139.8869  168.9663 N.ar    1  UNL1       -0.2250
     27 C         139.9892  145.8380  155.3971 C.3     1  UNL1        0.1116
     28 C         138.8411  150.1890  155.3900 C.ar    1  UNL1        0.1387
     29 C         138.4648  149.3160  156.5503 C.ar    1  UNL1        0.0366
     30 C         138.8475  147.8656  156.5527 C.ar    1  UNL1       -0.0007
     31 C         139.6064  147.2884  155.3948 C.ar    1  UNL1       -0.0129
     32 C         139.9826  148.1614  154.2345 C.ar    1  UNL1       -0.0007
     33 C         139.6000  149.6118  154.2321 C.ar    1  UNL1        0.0366
     34 C         138.4722  152.4167  154.1049 C.3     1  UNL1        0.2525
     35 O         138.4583  151.6394  155.3877 O.3     1  UNL1       -0.4714
@<TRIPOS>BOND
     1    34    35    1
     2    35    28    1
     3    28    29   ar
     4    29    30   ar
     5    30    31   ar
     6    31    27    1
     7    27     1    1
     8     1     2    2
     9     1     3   am
    10     3     4    1
    11     4     5    1
    12     5     6    1
    13     6     7    1
    14     7     8    1
    15     6     9    1
    16     9    10    1
    17    12    10    1
    18    12    13    1
    19    13    14    1
    20    14    15    1
    21    15    16   ar
    22    16    17   ar
    23    17    21    1
    24    21    22   ar
    25    22    23   ar
    26    23    24   ar
    27    24    25   ar
    28    25    26   ar
    29    17    18   ar
    30    18    19   ar
    31    19    20   ar
    32    10    11    1
    33    31    32   ar
    34    32    33   ar
    35    33    28   ar
    36     8     3    1
    37    20    12    1
    38    11     6    1
    39    20    15   ar
    40    26    21   ar
@<TRIPOS>MOLECULE
*****
 35 40 0 0 0
SMALL
GASTEIGER

@<TRIPOS>ATOM
      1 C         143.6926  140.2870  164.6541 C.2     1  UNL1        0.2301
      2 O         144.2183  141.6663  164.9212 O.2     1  UNL1       -0.2745
      3 N         143.5425  139.8019  163.2426 N.am    1  UNL1       -0.2793
      4 C         143.9181  140.6960  162.0984 C.3     1  UNL1        0.0935
      5 C         143.7681  140.2109  160.6870 C.3     1  UNL1        0.0242
      6 C         143.2423  138.8316  160.4199 C.3     1  UNL1        0.0328
      7 C         142.8667  137.9376  161.5642 C.3     1  UNL1        0.0242
      8 C         143.0167  138.4227  162.9755 C.3     1  UNL1        0.0935
      9 C         143.5042  139.4167  159.0637 C.3     1  UNL1        0.0737
     10 N         143.0301  138.1455  158.4237 N.3     1  UNL1       -0.2702
     11 C         142.7682  137.5605  159.7799 C.3     1  UNL1        0.0737
     12 C         142.8800  137.6604  157.0123 C.3     1  UNL1        0.0801
     13 C         142.5931  138.5137  155.8125 C.3     1  UNL1        0.0251
     14 C         142.5262  137.6175  154.6116 C.3     1  UNL1        0.0278
     15 C         142.7718  136.2103  155.0692 C.ar    1  UNL1       -0.0247
     16 C         142.8246  134.9081  154.3265 C.ar    1  UNL1       -0.0015
     17 C         143.0960  133.6325  155.0675 C.ar    1  UNL1        0.0355
     18 C         143.3146  133.6591  156.5513 C.ar    1  UNL1        0.0027
     19 C         143.2618  134.9612  157.2939 C.ar    1  UNL1       -0.0032
     20 C         142.9904  136.2369  156.5529 C.ar    1  UNL1       -0.0117
     21 C         143.1488  132.3304  154.3247 C.ar    1  UNL1        0.1622
     22 N         143.8074  131.1364  154.9498 N.ar    1  UNL1       -0.2250
     23 C         143.8601  129.8344  154.2070 C.ar    1  UNL1        0.1022
     24 C         143.2542  129.7262  152.8391 C.ar    1  UNL1        0.0414
     25 C         142.5956  130.9201  152.2140 C.ar    1  UNL1        0.1022
     26 N         142.5429  132.2222  152.9568 N.ar    1  UNL1       -0.2250
     27 C         143.3169  139.3930  165.7984 C.3     1  UNL1        0.1116
     28 C         140.4279  140.8403  168.9304 C.ar    1  UNL1        0.1387
     29 C         140.1909  141.1633  167.4848 C.ar    1  UNL1        0.0366
     30 C         141.1539  140.6809  166.4409 C.ar    1  UNL1       -0.0007
     31 C         142.3539  139.8754  166.8424 C.ar    1  UNL1       -0.0129
     32 C         142.5909  139.5524  168.2879 C.ar    1  UNL1       -0.0007
     33 C         141.6279  140.0349  169.3319 C.ar    1  UNL1        0.0366
     34 C         139.6838  142.6483  170.6413 C.3     1  UNL1        0.2525
     35 O         139.4649  141.3228  169.9743 O.3     1  UNL1       -0.4714
@<TRIPOS>BOND
     1    34    35    1
     2    35    28    1
     3    28    29   ar
     4    29    30   ar
     5    30    31   ar
     6    31    27    1
     7    27     1    1
     8     1     2    2
     9     1     3   am
    10     3     4    1
    11     4     5    1
    12     5     6    1
    13     6     7    1
    14     7     8    1
    15     6     9    1
    16     9    10    1
    17    12    10    1
    18    12    13    1
    19    13    14    1
    20    14    15    1
    21    15    16   ar
    22    16    17   ar
    23    17    21    1
    24    21    22   ar
    25    22    23   ar
    26    23    24   ar
    27    24    25   ar
    28    25    26   ar
    29    17    18   ar
    30    18    19   ar
    31    19    20   ar
    32    10    11    1
    33    31    32   ar
    34    32    33   ar
    35    33    28   ar
    36     8     3    1
    37    20    12    1
    38    11     6    1
    39    20    15   ar
    40    26    21   ar
@<TRIPOS>MOLECULE
*****
 35 40 0 0 0
SMALL
GASTEIGER

@<TRIPOS>ATOM
      1 C         143.3179  137.4331  156.0905 C.2     1  UNL1        0.2301
      2 O         144.7245  137.6698  155.6266 O.2     1  UNL1       -0.2745
      3 N         142.7351  138.2818  157.1816 N.am    1  UNL1       -0.2793
      4 C         143.5591  139.3671  157.8086 C.3     1  UNL1        0.0935
      5 C         142.9764  140.2157  158.8996 C.3     1  UNL1        0.0242
      6 C         141.5697  139.9790  159.3635 C.3     1  UNL1        0.0328
      7 C         140.7458  138.8937  158.7365 C.3     1  UNL1        0.0242
      8 C         141.3285  138.0451  157.6455 C.3     1  UNL1        0.0935
      9 C         142.0683  141.1188  160.2016 C.3     1  UNL1        0.0737
     10 N         140.7456  141.1792  160.9065 N.3     1  UNL1       -0.2702
     11 C         140.2470  140.0394  160.0684 C.3     1  UNL1        0.0737
     12 C         140.1629  142.0278  161.9975 C.3     1  UNL1        0.0801
     13 C         139.2796  143.2250  161.8066 C.3     1  UNL1        0.0251
     14 C         138.9319  143.7653  163.1620 C.3     1  UNL1        0.0278
     15 C         139.6004  142.9020  164.1906 C.ar    1  UNL1       -0.0247
     16 C         139.6146  142.9550  165.6896 C.ar    1  UNL1       -0.0015
     17 C         140.3896  141.9342  166.4688 C.ar    1  UNL1        0.0355
     18 C         141.1504  140.8603  165.7490 C.ar    1  UNL1        0.0027
     19 C         141.1362  140.8073  164.2501 C.ar    1  UNL1       -0.0032
     20 C         140.3611  141.8282  163.4708 C.ar    1  UNL1       -0.0117
     21 C         140.4038  141.9872  167.9678 C.ar    1  UNL1        0.1622
     22 N         140.3881  143.3117  168.6717 N.ar    1  UNL1       -0.2250
     23 C         140.4022  143.3647  170.1706 C.ar    1  UNL1        0.1022
     24 C         140.4322  142.0931  170.9658 C.ar    1  UNL1        0.0414
     25 C         140.4480  140.7686  170.2620 C.ar    1  UNL1        0.1022
     26 N         140.4338  140.7157  168.7630 N.ar    1  UNL1       -0.2250
     27 C         142.4939  136.3478  155.4635 C.3     1  UNL1        0.1116
     28 C         143.0136  132.0786  156.7877 C.ar    1  UNL1        0.1387
     29 C         141.9407  132.4325  155.8009 C.ar    1  UNL1        0.0366
     30 C         141.7675  133.8555  155.3595 C.ar    1  UNL1       -0.0007
     31 C         142.6671  134.9247  155.9049 C.ar    1  UNL1       -0.0129
     32 C         143.7400  134.5708  156.8917 C.ar    1  UNL1       -0.0007
     33 C         143.9132  133.1478  157.3331 C.ar    1  UNL1        0.0366
     34 C         144.3686  130.2690  158.0679 C.3     1  UNL1        0.2525
     35 O         143.1868  130.6555  157.2291 O.3     1  UNL1       -0.4714
@<TRIPOS>BOND
     1    34    35    1
     2    35    28    1
     3    28    29   ar
     4    29    30   ar
     5    30    31   ar
     6    31    27    1
     7    27     1    1
     8     1     2    2
     9     1     3   am
    10     3     4    1
    11     4     5    1
    12     5     6    1
    13     6     7    1
    14     7     8    1
    15     6     9    1
    16     9    10    1
    17    12    10    1
    18    12    13    1
    19    13    14    1
    20    14    15    1
    21    15    16   ar
    22    16    17   ar
    23    17    21    1
    24    21    22   ar
    25    22    23   ar
    26    23    24   ar
    27    24    25   ar
    28    25    26   ar
    29    17    18   ar
    30    18    19   ar
    31    19    20   ar
    32    10    11    1
    33    31    32   ar
    34    32    33   ar
    35    33    28   ar
    36     8     3    1
    37    20    12    1
    38    11     6    1
    39    20    15   ar
    40    26    21   ar
@<TRIPOS>MOLECULE
*****
 35 40 0 0 0
SMALL
GASTEIGER

@<TRIPOS>ATOM
      1 C         140.4640  136.8822  156.0956 C.2     1  UNL1        0.2301
      2 O         138.9964  136.8140  155.7932 O.2     1  UNL1       -0.2745
      3 N         140.9556  137.7158  157.2417 N.am    1  UNL1       -0.2793
      4 C         139.9797  138.4812  158.0853 C.3     1  UNL1        0.0935
      5 C         140.4713  139.3148  159.2313 C.3     1  UNL1        0.0242
      6 C         141.9389  139.3830  159.5337 C.3     1  UNL1        0.0328
      7 C         142.9149  138.6176  158.6901 C.3     1  UNL1        0.0242
      8 C         142.4232  137.7840  157.5441 C.3     1  UNL1        0.0935
      9 C         141.2890  140.2571  160.5650 C.3     1  UNL1        0.0737
     10 N         142.6343  140.5619  161.1545 N.3     1  UNL1       -0.2702
     11 C         143.2842  139.6878  160.1232 C.3     1  UNL1        0.0737
     12 C         143.1259  141.3955  162.3005 C.3     1  UNL1        0.0801
     13 C         144.0170  142.5977  162.1977 C.3     1  UNL1        0.0251
     14 C         144.2546  143.1185  163.5842 C.3     1  UNL1        0.0278
     15 C         143.5105  142.2381  164.5438 C.ar    1  UNL1       -0.0247
     16 C         143.3779  142.2684  166.0377 C.ar    1  UNL1       -0.0015
     17 C         142.5477  141.2339  166.7381 C.ar    1  UNL1        0.0355
     18 C         141.8501  140.1691  165.9447 C.ar    1  UNL1        0.0027
     19 C         141.9827  140.1387  164.4510 C.ar    1  UNL1       -0.0032
     20 C         142.8129  141.1732  163.7505 C.ar    1  UNL1       -0.0117
     21 C         142.4152  141.2643  168.2320 C.ar    1  UNL1        0.1622
     22 N         141.7703  142.4401  168.9040 N.ar    1  UNL1       -0.2250
     23 C         141.6378  142.4705  170.3977 C.ar    1  UNL1        0.1022
     24 C         142.1502  141.3250  171.2196 C.ar    1  UNL1        0.0414
     25 C         142.7950  140.1492  170.5476 C.ar    1  UNL1        0.1022
     26 N         142.9275  140.1189  169.0538 N.ar    1  UNL1       -0.2250
     27 C         141.4399  136.1168  155.2520 C.3     1  UNL1        0.1116
     28 C         142.5708  131.9091  156.3772 C.ar    1  UNL1        0.1387
     29 C         141.5283  132.1499  155.3260 C.ar    1  UNL1        0.0366
     30 C         141.1513  133.5524  154.9509 C.ar    1  UNL1       -0.0007
     31 C         141.8169  134.7142  155.6271 C.ar    1  UNL1       -0.0129
     32 C         142.8594  134.4734  156.6784 C.ar    1  UNL1       -0.0007
     33 C         143.2363  133.0709  157.0535 C.ar    1  UNL1        0.0366
     34 C         143.3751  129.5357  155.6918 C.3     1  UNL1        0.2525
     35 O         142.9478  130.5065  156.7523 O.3     1  UNL1       -0.4714
@<TRIPOS>BOND
     1    34    35    1
     2    35    28    1
     3    28    29   ar
     4    29    30   ar
     5    30    31   ar
     6    31    27    1
     7    27     1    1
     8     1     2    2
     9     1     3   am
    10     3     4    1
    11     4     5    1
    12     5     6    1
    13     6     7    1
    14     7     8    1
    15     6     9    1
    16     9    10    1
    17    12    10    1
    18    12    13    1
    19    13    14    1
    20    14    15    1
    21    15    16   ar
    22    16    17   ar
    23    17    21    1
    24    21    22   ar
    25    22    23   ar
    26    23    24   ar
    27    24    25   ar
    28    25    26   ar
    29    17    18   ar
    30    18    19   ar
    31    19    20   ar
    32    10    11    1
    33    31    32   ar
    34    32    33   ar
    35    33    28   ar
    36     8     3    1
    37    20    12    1
    38    11     6    1
    39    20    15   ar
    40    26    21   ar
@<TRIPOS>MOLECULE
*****
 35 40 0 0 0
SMALL
GASTEIGER

@<TRIPOS>ATOM
      1 C         139.9151  137.5840  162.8588 C.2     1  UNL1        0.2301
      2 O         141.2244  136.8545  162.9193 O.2     1  UNL1       -0.2745
      3 N         139.5904  138.4450  161.6742 N.am    1  UNL1       -0.2793
      4 C         140.5748  138.5765  160.5501 C.3     1  UNL1        0.0935
      5 C         140.2500  139.4374  159.3656 C.3     1  UNL1        0.0242
      6 C         138.9408  140.1669  159.3051 C.3     1  UNL1        0.0328
      7 C         137.9563  140.0354  160.4291 C.3     1  UNL1        0.0242
      8 C         138.2811  139.1745  161.6136 C.3     1  UNL1        0.0935
      9 C         139.6475  140.5316  158.0332 C.3     1  UNL1        0.0737
     10 N         138.4814  141.3846  157.6297 N.3     1  UNL1       -0.2702
     11 C         137.7747  141.0199  158.9016 C.3     1  UNL1        0.0737
     12 C         138.1566  142.2455  156.4452 C.3     1  UNL1        0.0801
     13 C         137.3306  141.8401  155.2606 C.3     1  UNL1        0.0251
     14 C         137.2642  143.0071  154.3205 C.3     1  UNL1        0.0278
     15 C         138.0493  144.1337  154.9241 C.ar    1  UNL1       -0.0247
     16 C         138.3333  145.5274  154.4477 C.ar    1  UNL1       -0.0015
     17 C         139.1688  146.4504  155.2844 C.ar    1  UNL1        0.0355
     18 C         139.7203  145.9797  156.5975 C.ar    1  UNL1        0.0027
     19 C         139.4363  144.5861  157.0739 C.ar    1  UNL1       -0.0032
     20 C         138.6008  143.6630  156.2372 C.ar    1  UNL1       -0.0117
     21 C         139.4527  147.8441  154.8078 C.ar    1  UNL1        0.1622
     22 N         140.3854  148.0670  153.6545 N.ar    1  UNL1       -0.2250
     23 C         140.6693  149.4607  153.1781 C.ar    1  UNL1        0.1022
     24 C         140.0204  150.6315  153.8550 C.ar    1  UNL1        0.0414
     25 C         139.0877  150.4086  155.0083 C.ar    1  UNL1        0.1022
     26 N         138.8038  149.0149  155.4848 N.ar    1  UNL1       -0.2250
     27 C         138.9307  137.4525  163.9828 C.3     1  UNL1        0.1116
     28 C         139.4573  139.8858  167.7314 C.ar    1  UNL1        0.1387
     29 C         140.5486  139.8467  166.7031 C.ar    1  UNL1        0.0366
     30 C         140.3731  139.0356  165.4536 C.ar    1  UNL1       -0.0007
     31 C         139.1062  138.2636  165.2324 C.ar    1  UNL1       -0.0129
     32 C         138.0149  138.3027  166.2607 C.ar    1  UNL1       -0.0007
     33 C         138.1904  139.1138  167.5102 C.ar    1  UNL1        0.0366
     34 C         140.3338  140.1045  170.1673 C.3     1  UNL1        0.2525
     35 O         139.6329  140.6969  168.9809 O.3     1  UNL1       -0.4714
@<TRIPOS>BOND
     1    34    35    1
     2    35    28    1
     3    28    29   ar
     4    29    30   ar
     5    30    31   ar
     6    31    27    1
     7    27     1    1
     8     1     2    2
     9     1     3   am
    10     3     4    1
    11     4     5    1
    12     5     6    1
    13     6     7    1
    14     7     8    1
    15     6     9    1
    16     9    10    1
    17    12    10    1
    18    12    13    1
    19    13    14    1
    20    14    15    1
    21    15    16   ar
    22    16    17   ar
    23    17    21    1
    24    21    22   ar
    25    22    23   ar
    26    23    24   ar
    27    24    25   ar
    28    25    26   ar
    29    17    18   ar
    30    18    19   ar
    31    19    20   ar
    32    10    11    1
    33    31    32   ar
    34    32    33   ar
    35    33    28   ar
    36     8     3    1
    37    20    12    1
    38    11     6    1
    39    20    15   ar
    40    26    21   ar
@<TRIPOS>MOLECULE
*****
 35 40 0 0 0
SMALL
GASTEIGER

@<TRIPOS>ATOM
      1 C         142.3266  137.2880  155.7863 C.2     1  UNL1        0.2301
      2 O         142.6930  137.9095  154.4712 O.2     1  UNL1       -0.2745
      3 N         142.6526  137.9967  157.0675 N.am    1  UNL1       -0.2793
      4 C         143.3448  139.3270  157.0336 C.3     1  UNL1        0.0935
      5 C         143.6707  140.0357  158.3148 C.3     1  UNL1        0.0242
      6 C         143.3043  139.4142  159.6299 C.3     1  UNL1        0.0328
      7 C         142.6121  138.0839  159.6638 C.3     1  UNL1        0.0242
      8 C         142.2862  137.3752  158.3826 C.3     1  UNL1        0.0935
      9 C         143.9670  140.7121  159.9851 C.3     1  UNL1        0.0737
     10 N         143.7653  140.4165  161.4418 N.3     1  UNL1       -0.2702
     11 C         143.1026  139.1186  161.0866 C.3     1  UNL1        0.0737
     12 C         144.0912  141.1252  162.7230 C.3     1  UNL1        0.0801
     13 C         145.3178  141.9465  162.9889 C.3     1  UNL1        0.0251
     14 C         145.2324  142.4660  164.3935 C.3     1  UNL1        0.0278
     15 C         143.9530  141.9657  164.9956 C.ar    1  UNL1       -0.0247
     16 C         143.3390  142.1577  166.3507 C.ar    1  UNL1       -0.0015
     17 C         142.0197  141.5210  166.6734 C.ar    1  UNL1        0.0355
     18 C         141.3144  140.6924  165.6410 C.ar    1  UNL1        0.0027
     19 C         141.9283  140.5004  164.2860 C.ar    1  UNL1       -0.0032
     20 C         143.2477  141.1371  163.9632 C.ar    1  UNL1       -0.0117
     21 C         141.4058  141.7130  168.0285 C.ar    1  UNL1        0.1622
     22 N         141.3158  140.5583  168.9816 N.ar    1  UNL1       -0.2250
     23 C         140.7019  140.7503  170.3366 C.ar    1  UNL1        0.1022
     24 C         140.1780  142.0972  170.7387 C.ar    1  UNL1        0.0414
     25 C         140.2681  143.2519  169.7856 C.ar    1  UNL1        0.1022
     26 N         140.8820  143.0598  168.4305 N.ar    1  UNL1       -0.2250
     27 C         141.6344  135.9577  155.8202 C.3     1  UNL1        0.1116
     28 C         144.0441  132.1618  155.6371 C.ar    1  UNL1        0.1387
     29 C         144.3772  133.2133  156.6537 C.ar    1  UNL1        0.0366
     30 C         143.5739  134.4786  156.7147 C.ar    1  UNL1       -0.0007
     31 C         142.4377  134.6924  155.7592 C.ar    1  UNL1       -0.0129
     32 C         142.1046  133.6409  154.7426 C.ar    1  UNL1       -0.0007
     33 C         142.9079  132.3756  154.6816 C.ar    1  UNL1        0.0366
     34 C         144.5843  129.8925  154.4931 C.3     1  UNL1        0.2525
     35 O         144.8475  130.8964  155.5761 O.3     1  UNL1       -0.4714
@<TRIPOS>BOND
     1    34    35    1
     2    35    28    1
     3    28    29   ar
     4    29    30   ar
     5    30    31   ar
     6    31    27    1
     7    27     1    1
     8     1     2    2
     9     1     3   am
    10     3     4    1
    11     4     5    1
    12     5     6    1
    13     6     7    1
    14     7     8    1
    15     6     9    1
    16     9    10    1
    17    12    10    1
    18    12    13    1
    19    13    14    1
    20    14    15    1
    21    15    16   ar
    22    16    17   ar
    23    17    21    1
    24    21    22   ar
    25    22    23   ar
    26    23    24   ar
    27    24    25   ar
    28    25    26   ar
    29    17    18   ar
    30    18    19   ar
    31    19    20   ar
    32    10    11    1
    33    31    32   ar
    34    32    33   ar
    35    33    28   ar
    36     8     3    1
    37    20    12    1
    38    11     6    1
    39    20    15   ar
    40    26    21   ar
@<TRIPOS>MOLECULE
*****
 35 40 0 0 0
SMALL
GASTEIGER

@<TRIPOS>ATOM
      1 C         141.4357  137.9912  163.4123 C.2     1  UNL1        0.2301
      2 O         141.0410  136.5544  163.5846 O.2     1  UNL1       -0.2745
      3 N         140.8435  138.8033  162.2988 N.am    1  UNL1       -0.2793
      4 C         139.8567  138.1785  161.3576 C.3     1  UNL1        0.0935
      5 C         139.2646  138.9906  160.2441 C.3     1  UNL1        0.0242
      6 C         139.6593  140.4274  160.0718 C.3     1  UNL1        0.0328
      7 C         140.6461  141.0522  161.0129 C.3     1  UNL1        0.0242
      8 C         141.2382  140.2401  162.1264 C.3     1  UNL1        0.0935
      9 C         138.6766  140.1600  158.9705 C.3     1  UNL1        0.0737
     10 N         138.8219  141.5759  158.4969 N.3     1  UNL1       -0.2702
     11 C         139.8046  141.8433  159.5982 C.3     1  UNL1        0.0737
     12 C         138.2298  142.3880  157.3835 C.3     1  UNL1        0.0801
     13 C         137.0443  142.0060  156.5476 C.3     1  UNL1        0.0251
     14 C         136.8010  143.1066  155.5579 C.3     1  UNL1        0.0278
     15 C         137.8362  144.1687  155.7820 C.ar    1  UNL1       -0.0247
     16 C         138.0889  145.4829  155.1045 C.ar    1  UNL1       -0.0015
     17 C         139.2245  146.3530  155.5553 C.ar    1  UNL1        0.0355
     18 C         140.1075  145.9089  156.6836 C.ar    1  UNL1        0.0027
     19 C         139.8549  144.5947  157.3611 C.ar    1  UNL1       -0.0032
     20 C         138.7192  143.7246  156.9103 C.ar    1  UNL1       -0.0117
     21 C         139.4771  147.6672  154.8777 C.ar    1  UNL1        0.1622
     22 N         138.9123  148.9304  155.4567 N.ar    1  UNL1       -0.2250
     23 C         139.1649  150.2445  154.7792 C.ar    1  UNL1        0.1022
     24 C         139.9824  150.2955  153.5225 C.ar    1  UNL1        0.0414
     25 C         140.5472  149.0323  152.9435 C.ar    1  UNL1        0.1022
     26 N         140.2946  147.7182  153.6211 N.ar    1  UNL1       -0.2250
     27 C         142.4225  138.6160  164.3535 C.3     1  UNL1        0.1116
     28 C         141.0933  139.9710  168.4336 C.ar    1  UNL1        0.1387
     29 C         140.1293  139.9944  167.2846 C.ar    1  UNL1        0.0366
     30 C         140.5724  139.5428  165.9246 C.ar    1  UNL1       -0.0007
     31 C         141.9794  139.0677  165.7136 C.ar    1  UNL1       -0.0129
     32 C         142.9433  139.0442  166.8626 C.ar    1  UNL1       -0.0007
     33 C         142.5003  139.4959  168.2226 C.ar    1  UNL1        0.0366
     34 C         141.6666  140.8563  170.8080 C.3     1  UNL1        0.2525
     35 O         140.6502  140.4227  169.7937 O.3     1  UNL1       -0.4714
@<TRIPOS>BOND
     1    34    35    1
     2    35    28    1
     3    28    29   ar
     4    29    30   ar
     5    30    31   ar
     6    31    27    1
     7    27     1    1
     8     1     2    2
     9     1     3   am
    10     3     4    1
    11     4     5    1
    12     5     6    1
    13     6     7    1
    14     7     8    1
    15     6     9    1
    16     9    10    1
    17    12    10    1
    18    12    13    1
    19    13    14    1
    20    14    15    1
    21    15    16   ar
    22    16    17   ar
    23    17    21    1
    24    21    22   ar
    25    22    23   ar
    26    23    24   ar
    27    24    25   ar
    28    25    26   ar
    29    17    18   ar
    30    18    19   ar
    31    19    20   ar
    32    10    11    1
    33    31    32   ar
    34    32    33   ar
    35    33    28   ar
    36     8     3    1
    37    20    12    1
    38    11     6    1
    39    20    15   ar
    40    26    21   ar
