@<TRIPOS>MOLECULE
*****
 35 39 0 0 0
SMALL
GASTEIGER

@<TRIPOS>ATOM
      1 C         141.9902  142.1454  168.8341 C.ar    1  UNL1        0.1060
      2 C         140.5391  141.7872  168.9599 C.ar    1  UNL1        0.0196
      3 C         139.8469  141.0593  167.8459 C.ar    1  UNL1        0.0160
      4 C         140.6060  140.6897  166.6060 C.ar    1  UNL1        0.0523
      5 C         142.0571  141.0479  166.4802 C.ar    1  UNL1        0.0682
      6 C         142.7492  141.7758  167.5943 C.ar    1  UNL1        0.0241
      7 C         142.8160  140.6782  165.2403 C.2     1  UNL1        0.2508
      8 O         143.8071  139.5528  165.2751 O.2     1  UNL1       -0.2698
      9 N         142.5840  141.4341  163.9656 N.am    1  UNL1       -0.2661
     10 C         143.2649  141.1800  162.6534 C.3     1  UNL1        0.1236
     11 C         142.7320  142.1656  161.6561 C.ar    1  UNL1        0.0338
     12 C         142.8234  142.6177  160.2288 C.ar    1  UNL1        0.0991
     13 N         141.8696  143.7603  160.0425 N.ar    1  UNL1       -0.2271
     14 N         141.1887  144.0144  161.3546 N.ar    1  UNL1       -0.1680
     15 C         141.7216  143.0287  162.3520 C.ar    1  UNL1        0.0981
     16 C         141.6302  142.5766  163.7793 C.3     1  UNL1        0.1414
     17 C         141.6376  144.5161  158.7678 C.ar    1  UNL1        0.1042
     18 C         142.5020  144.2514  157.5709 C.ar    1  UNL1        0.1181
     19 N         142.2700  145.0072  156.2962 N.ar    1  UNL1       -0.2384
     20 C         141.1734  146.0277  156.2184 C.ar    1  UNL1        0.1285
     21 C         140.3089  146.2924  157.4153 C.ar    1  UNL1        0.1607
     22 F         139.2124  147.3130  157.3374 F       1  UNL1       -0.2025
     23 C         140.5410  145.5366  158.6900 C.ar    1  UNL1        0.0520
     24 N         139.9138  139.9618  165.4920 N.pl3   1  UNL1       -0.3070
     25 C         138.8851  140.6682  164.6597 C.3     1  UNL1        0.0964
     26 C         138.1929  139.9403  163.5456 C.3     1  UNL1        0.0880
     27 C         138.5294  138.5060  163.2639 C.3     1  UNL1        0.2672
     28 F         138.5057  137.1539  162.6148 F       1  UNL1       -0.2042
     29 F         137.4925  138.7429  162.2062 F       1  UNL1       -0.2042
     30 C         139.5580  137.7995  164.0962 C.3     1  UNL1        0.0880
     31 C         140.2502  138.5274  165.2103 C.3     1  UNL1        0.0964
     32 C         143.3746  143.6012  171.0621 C.3     1  UNL1        0.1816
     33 S         142.6824  142.8733  169.9481 S.O2    1  UNL1        0.0105
     34 O         141.3765  143.0032  170.6747 O.2     1  UNL1       -0.1686
     35 O         143.9883  142.7435  169.2216 O.2     1  UNL1       -0.1686
@<TRIPOS>BOND
     1    32    33    1
     2    33    34    2
     3    33    35    2
     4    33     1    1
     5     1     2   ar
     6     2     3   ar
     7     3     4   ar
     8     4    24    1
     9    24    25    1
    10    25    26    1
    11    26    27    1
    12    27    28    1
    13    27    29    1
    14    27    30    1
    15    30    31    1
    16     4     5   ar
    17     5     7    1
    18     7     8    2
    19     7     9   am
    20     9    10    1
    21    10    11    1
    22    11    12   ar
    23    12    13   ar
    24    13    17    1
    25    17    18   ar
    26    18    19   ar
    27    19    20   ar
    28    20    21   ar
    29    21    22    1
    30    21    23   ar
    31    13    14   ar
    32    14    15   ar
    33    15    16    1
    34     5     6   ar
    35     6     1   ar
    36    31    24    1
    37    16     9    1
    38    15    11   ar
    39    23    17   ar
@<TRIPOS>MOLECULE
*****
 35 39 0 0 0
SMALL
GASTEIGER

@<TRIPOS>ATOM
      1 C         142.0133  140.5536  167.7048 C.ar    1  UNL1        0.1060
      2 C         142.7967  141.8230  167.5470 C.ar    1  UNL1        0.0196
      3 C         142.4907  142.7572  166.4140 C.ar    1  UNL1        0.0160
      4 C         141.4013  142.4218  165.4389 C.ar    1  UNL1        0.0523
      5 C         140.6179  141.1524  165.5967 C.ar    1  UNL1        0.0682
      6 C         140.9240  140.2183  166.7298 C.ar    1  UNL1        0.0241
      7 C         139.5286  140.8172  164.6216 C.2     1  UNL1        0.2508
      8 O         138.0943  141.0626  164.9858 O.2     1  UNL1       -0.2698
      9 N         139.8735  140.2366  163.2822 N.am    1  UNL1       -0.2661
     10 C         138.8975  139.8534  162.2095 C.3     1  UNL1        0.1236
     11 C         139.6758  139.3173  161.0447 C.ar    1  UNL1        0.0338
     12 C         139.5537  138.7491  159.6619 C.ar    1  UNL1        0.0991
     13 N         140.9352  138.4498  159.1600 N.ar    1  UNL1       -0.2271
     14 N         141.9112  138.8331  160.2326 N.ar    1  UNL1       -0.1680
     15 C         141.1328  139.3692  161.3975 C.ar    1  UNL1        0.0981
     16 C         141.2550  139.9374  162.7803 C.3     1  UNL1        0.1414
     17 C         141.2801  137.8693  157.8206 C.ar    1  UNL1        0.1042
     18 C         140.2133  137.6982  156.7801 C.ar    1  UNL1        0.1181
     19 N         140.5582  137.1176  155.4407 N.ar    1  UNL1       -0.2384
     20 C         141.9699  136.7082  155.1418 C.ar    1  UNL1        0.1285
     21 C         143.0367  136.8793  156.1823 C.ar    1  UNL1        0.1607
     22 F         144.4485  136.4698  155.8833 F       1  UNL1       -0.2025
     23 C         142.6918  137.4598  157.5217 C.ar    1  UNL1        0.0520
     24 N         141.0953  143.3560  164.3059 N.pl3   1  UNL1       -0.3070
     25 C         139.8718  144.2222  164.3576 C.3     1  UNL1        0.0964
     26 C         139.5658  145.1564  163.2246 C.3     1  UNL1        0.0880
     27 C         140.4833  145.2244  162.0399 C.3     1  UNL1        0.2672
     28 F         141.0434  145.6438  160.7131 F       1  UNL1       -0.2042
     29 F         139.4543  146.2363  161.6308 F       1  UNL1       -0.2042
     30 C         141.7068  144.3582  161.9882 C.3     1  UNL1        0.0880
     31 C         142.0128  143.4240  163.1212 C.3     1  UNL1        0.0964
     32 C         142.6253  138.6852  169.9708 C.3     1  UNL1        0.1816
     33 S         142.3193  139.6194  168.8378 S.O2    1  UNL1        0.0105
     34 O         143.2350  138.8359  167.9446 O.2     1  UNL1       -0.1686
     35 O         141.4037  140.4028  169.7311 O.2     1  UNL1       -0.1686
@<TRIPOS>BOND
     1    32    33    1
     2    33    34    2
     3    33    35    2
     4    33     1    1
     5     1     2   ar
     6     2     3   ar
     7     3     4   ar
     8     4    24    1
     9    24    25    1
    10    25    26    1
    11    26    27    1
    12    27    28    1
    13    27    29    1
    14    27    30    1
    15    30    31    1
    16     4     5   ar
    17     5     7    1
    18     7     8    2
    19     7     9   am
    20     9    10    1
    21    10    11    1
    22    11    12   ar
    23    12    13   ar
    24    13    17    1
    25    17    18   ar
    26    18    19   ar
    27    19    20   ar
    28    20    21   ar
    29    21    22    1
    30    21    23   ar
    31    13    14   ar
    32    14    15   ar
    33    15    16    1
    34     5     6   ar
    35     6     1   ar
    36    31    24    1
    37    16     9    1
    38    15    11   ar
    39    23    17   ar
@<TRIPOS>MOLECULE
*****
 35 39 0 0 0
SMALL
GASTEIGER

@<TRIPOS>ATOM
      1 C         141.9375  140.4350  167.7735 C.ar    1  UNL1        0.1060
      2 C         140.6749  141.2448  167.7824 C.ar    1  UNL1        0.0196
      3 C         140.3416  142.1272  166.6161 C.ar    1  UNL1        0.0160
      4 C         141.2709  142.1997  165.4408 C.ar    1  UNL1        0.0523
      5 C         142.5335  141.3898  165.4319 C.ar    1  UNL1        0.0682
      6 C         142.8668  140.5075  166.5983 C.ar    1  UNL1        0.0241
      7 C         143.4627  141.4624  164.2566 C.2     1  UNL1        0.2508
      8 O         144.7168  142.2809  164.3414 O.2     1  UNL1       -0.2698
      9 N         143.1377  140.7164  162.9965 N.am    1  UNL1       -0.2661
     10 C         143.9665  140.6941  161.7464 C.3     1  UNL1        0.1236
     11 C         143.2679  139.8256  160.7425 C.ar    1  UNL1        0.0338
     12 C         143.3483  139.2751  159.3495 C.ar    1  UNL1        0.0991
     13 N         142.1375  138.4205  159.1182 N.ar    1  UNL1       -0.2271
     14 N         141.3087  138.4428  160.3683 N.ar    1  UNL1       -0.1680
     15 C         142.0074  139.3113  161.3722 C.ar    1  UNL1        0.0981
     16 C         141.9269  139.8618  162.7652 C.3     1  UNL1        0.1414
     17 C         141.8126  137.6745  157.8581 C.ar    1  UNL1        0.1042
     18 C         140.4350  137.7589  157.2706 C.ar    1  UNL1        0.1181
     19 N         140.1100  137.0129  156.0105 N.ar    1  UNL1       -0.2384
     20 C         141.1627  136.1826  155.3378 C.ar    1  UNL1        0.1285
     21 C         142.5403  136.0983  155.9253 C.ar    1  UNL1        0.1607
     22 F         143.5929  135.2679  155.2525 F       1  UNL1       -0.2025
     23 C         142.8652  136.8442  157.1854 C.ar    1  UNL1        0.0520
     24 N         140.9375  143.0820  164.2745 N.pl3   1  UNL1       -0.3070
     25 C         139.9744  142.6082  163.2267 C.3     1  UNL1        0.0964
     26 C         139.6410  143.4905  162.0604 C.3     1  UNL1        0.0880
     27 C         140.2708  144.8467  161.9418 C.3     1  UNL1        0.2672
     28 F         140.6066  146.2018  161.3931 F       1  UNL1       -0.2042
     29 F         139.4242  144.8435  160.7035 F       1  UNL1       -0.2042
     30 C         141.2340  145.3206  162.9895 C.3     1  UNL1        0.0880
     31 C         141.5673  144.4382  164.1559 C.3     1  UNL1        0.0964
     32 C         142.6042  138.6703  170.1062 C.3     1  UNL1        0.1816
     33 S         142.2709  139.5527  168.9398 S.O2    1  UNL1        0.0105
     34 O         143.2179  138.7714  168.0781 O.2     1  UNL1       -0.1686
     35 O         141.3238  140.3340  169.8016 O.2     1  UNL1       -0.1686
@<TRIPOS>BOND
     1    32    33    1
     2    33    34    2
     3    33    35    2
     4    33     1    1
     5     1     2   ar
     6     2     3   ar
     7     3     4   ar
     8     4    24    1
     9    24    25    1
    10    25    26    1
    11    26    27    1
    12    27    28    1
    13    27    29    1
    14    27    30    1
    15    30    31    1
    16     4     5   ar
    17     5     7    1
    18     7     8    2
    19     7     9   am
    20     9    10    1
    21    10    11    1
    22    11    12   ar
    23    12    13   ar
    24    13    17    1
    25    17    18   ar
    26    18    19   ar
    27    19    20   ar
    28    20    21   ar
    29    21    22    1
    30    21    23   ar
    31    13    14   ar
    32    14    15   ar
    33    15    16    1
    34     5     6   ar
    35     6     1   ar
    36    31    24    1
    37    16     9    1
    38    15    11   ar
    39    23    17   ar
@<TRIPOS>MOLECULE
*****
 35 39 0 0 0
SMALL
GASTEIGER

@<TRIPOS>ATOM
      1 C         142.3713  141.3683  167.6591 C.ar    1  UNL1        0.1060
      2 C         142.0130  139.9125  167.6135 C.ar    1  UNL1        0.0196
      3 C         141.2536  139.3632  166.4423 C.ar    1  UNL1        0.0160
      4 C         140.8525  140.2700  165.3167 C.ar    1  UNL1        0.0523
      5 C         141.2108  141.7259  165.3623 C.ar    1  UNL1        0.0682
      6 C         141.9702  142.2750  166.5335 C.ar    1  UNL1        0.0241
      7 C         140.8096  142.6325  164.2366 C.2     1  UNL1        0.2508
      8 O         139.6410  143.5587  164.3996 O.2     1  UNL1       -0.2698
      9 N         141.5771  142.6130  162.9480 N.am    1  UNL1       -0.2661
     10 C         141.2950  143.4576  161.7409 C.3     1  UNL1        0.1236
     11 C         142.3050  143.1120  160.6870 C.ar    1  UNL1        0.0338
     12 C         142.7549  143.4204  159.2897 C.ar    1  UNL1        0.0991
     13 N         143.9392  142.5528  158.9820 N.ar    1  UNL1       -0.2271
     14 N         144.2213  141.7082  160.1891 N.ar    1  UNL1       -0.1680
     15 C         143.2113  142.0538  161.2429 C.ar    1  UNL1        0.0981
     16 C         142.7614  141.7454  162.6402 C.3     1  UNL1        0.1414
     17 C         144.7067  142.5333  157.6934 C.ar    1  UNL1        0.1042
     18 C         143.9753  142.5682  156.3842 C.ar    1  UNL1        0.1181
     19 N         144.7427  142.5487  155.0956 N.ar    1  UNL1       -0.2384
     20 C         146.2416  142.4942  155.1161 C.ar    1  UNL1        0.1285
     21 C         146.9730  142.4593  156.4252 C.ar    1  UNL1        0.1607
     22 F         148.4719  142.4048  156.4456 F       1  UNL1       -0.2025
     23 C         146.2055  142.4788  157.7139 C.ar    1  UNL1        0.0520
     24 N         140.0931  139.7208  164.1455 N.pl3   1  UNL1       -0.3070
     25 C         140.7851  138.8366  163.1509 C.3     1  UNL1        0.0964
     26 C         140.0258  138.2874  161.9797 C.3     1  UNL1        0.0880
     27 C         138.5743  138.6223  161.8031 C.3     1  UNL1        0.2672
     28 F         137.1971  138.6540  161.2095 F       1  UNL1       -0.2042
     29 F         138.7881  137.7492  160.6023 F       1  UNL1       -0.2042
     30 C         137.8823  139.5065  162.7978 C.3     1  UNL1        0.0880
     31 C         138.6417  140.0557  163.9690 C.3     1  UNL1        0.0964
     32 C         143.8901  142.4668  170.0015 C.3     1  UNL1        0.1816
     33 S         143.1307  141.9176  168.8303 S.O2    1  UNL1        0.0105
     34 O         143.8560  142.8613  167.9174 O.2     1  UNL1       -0.1686
     35 O         142.4053  140.9739  169.7431 O.2     1  UNL1       -0.1686
@<TRIPOS>BOND
     1    32    33    1
     2    33    34    2
     3    33    35    2
     4    33     1    1
     5     1     2   ar
     6     2     3   ar
     7     3     4   ar
     8     4    24    1
     9    24    25    1
    10    25    26    1
    11    26    27    1
    12    27    28    1
    13    27    29    1
    14    27    30    1
    15    30    31    1
    16     4     5   ar
    17     5     7    1
    18     7     8    2
    19     7     9   am
    20     9    10    1
    21    10    11    1
    22    11    12   ar
    23    12    13   ar
    24    13    17    1
    25    17    18   ar
    26    18    19   ar
    27    19    20   ar
    28    20    21   ar
    29    21    22    1
    30    21    23   ar
    31    13    14   ar
    32    14    15   ar
    33    15    16    1
    34     5     6   ar
    35     6     1   ar
    36    31    24    1
    37    16     9    1
    38    15    11   ar
    39    23    17   ar
@<TRIPOS>MOLECULE
*****
 35 39 0 0 0
SMALL
GASTEIGER

@<TRIPOS>ATOM
      1 C         141.7156  140.1213  168.2758 C.ar    1  UNL1        0.1060
      2 C         141.6051  141.5856  168.5818 C.ar    1  UNL1        0.0196
      3 C         141.0103  142.5203  167.5706 C.ar    1  UNL1        0.0160
      4 C         140.5261  141.9907  166.2533 C.ar    1  UNL1        0.0523
      5 C         140.6366  140.5264  165.9473 C.ar    1  UNL1        0.0682
      6 C         141.2313  139.5917  166.9586 C.ar    1  UNL1        0.0241
      7 C         140.1523  139.9969  164.6301 C.2     1  UNL1        0.2508
      8 O         138.8517  139.2537  164.5529 O.2     1  UNL1       -0.2698
      9 N         140.9688  140.2105  163.3900 N.am    1  UNL1       -0.2661
     10 C         140.6150  139.7416  162.0098 C.3     1  UNL1        0.1236
     11 C         141.7100  140.1719  161.0792 C.ar    1  UNL1        0.0338
     12 C         142.1681  140.1480  159.6511 C.ar    1  UNL1        0.0991
     13 N         143.4816  140.8681  159.5735 N.ar    1  UNL1       -0.2271
     14 N         143.8354  141.3369  160.9538 N.ar    1  UNL1       -0.1680
     15 C         142.7404  140.9067  161.8844 C.ar    1  UNL1        0.0981
     16 C         142.2824  140.9305  163.3125 C.3     1  UNL1        0.1414
     17 C         144.2981  141.0817  158.3335 C.ar    1  UNL1        0.1042
     18 C         145.2384  142.2471  158.2461 C.ar    1  UNL1        0.1181
     19 N         146.0549  142.4607  157.0061 N.ar    1  UNL1       -0.2384
     20 C         145.9310  141.5090  155.8534 C.ar    1  UNL1        0.1285
     21 C         144.9906  140.3436  155.9407 C.ar    1  UNL1        0.1607
     22 F         144.8668  139.3918  154.7879 F       1  UNL1       -0.2025
     23 C         144.1742  140.1299  157.1808 C.ar    1  UNL1        0.0520
     24 N         139.9313  142.9254  165.2421 N.pl3   1  UNL1       -0.3070
     25 C         138.4694  142.8459  164.9159 C.3     1  UNL1        0.0964
     26 C         137.8747  143.7807  163.9047 C.3     1  UNL1        0.0880
     27 C         138.7419  144.7949  163.2197 C.3     1  UNL1        0.2672
     28 F         139.1506  145.9169  162.3119 F       1  UNL1       -0.2042
     29 F         137.4219  145.1051  162.5782 F       1  UNL1       -0.2042
     30 C         140.2038  144.8745  163.5459 C.3     1  UNL1        0.0880
     31 C         140.7985  143.9397  164.5571 C.3     1  UNL1        0.0964
     32 C         142.9050  138.2518  170.2982 C.3     1  UNL1        0.1816
     33 S         142.3103  139.1866  169.2870 S.O2    1  UNL1        0.0105
     34 O         141.3224  139.6643  170.3096 O.2     1  UNL1       -0.1686
     35 O         143.2982  138.7089  168.2643 O.2     1  UNL1       -0.1686
@<TRIPOS>BOND
     1    32    33    1
     2    33    34    2
     3    33    35    2
     4    33     1    1
     5     1     2   ar
     6     2     3   ar
     7     3     4   ar
     8     4    24    1
     9    24    25    1
    10    25    26    1
    11    26    27    1
    12    27    28    1
    13    27    29    1
    14    27    30    1
    15    30    31    1
    16     4     5   ar
    17     5     7    1
    18     7     8    2
    19     7     9   am
    20     9    10    1
    21    10    11    1
    22    11    12   ar
    23    12    13   ar
    24    13    17    1
    25    17    18   ar
    26    18    19   ar
    27    19    20   ar
    28    20    21   ar
    29    21    22    1
    30    21    23   ar
    31    13    14   ar
    32    14    15   ar
    33    15    16    1
    34     5     6   ar
    35     6     1   ar
    36    31    24    1
    37    16     9    1
    38    15    11   ar
    39    23    17   ar
@<TRIPOS>MOLECULE
*****
 35 39 0 0 0
SMALL
GASTEIGER

@<TRIPOS>ATOM
      1 C         140.6266  141.6543  168.2582 C.ar    1  UNL1        0.1060
      2 C         140.2237  140.2292  168.0200 C.ar    1  UNL1        0.0196
      3 C         140.6877  139.5150  166.7853 C.ar    1  UNL1        0.0160
      4 C         141.5546  140.2261  165.7887 C.ar    1  UNL1        0.0523
      5 C         141.9575  141.6512  166.0269 C.ar    1  UNL1        0.0682
      6 C         141.4934  142.3653  167.2618 C.ar    1  UNL1        0.0241
      7 C         142.8244  142.3621  165.0304 C.2     1  UNL1        0.2508
      8 O         144.2529  142.6729  165.3659 O.2     1  UNL1       -0.2698
      9 N         142.2626  142.7622  163.6983 N.am    1  UNL1       -0.2661
     10 C         143.0046  143.4746  162.6066 C.3     1  UNL1        0.1236
     11 C         142.0607  143.6729  161.4576 C.ar    1  UNL1        0.0338
     12 C         141.9360  144.2357  160.0729 C.ar    1  UNL1        0.0991
     13 N         140.5337  143.9936  159.5987 N.ar    1  UNL1       -0.2271
     14 N         139.7917  143.2812  160.6905 N.ar    1  UNL1       -0.1680
     15 C         140.7355  143.0830  161.8394 C.ar    1  UNL1        0.0981
     16 C         140.8603  142.5202  163.2242 C.3     1  UNL1        0.1414
     17 C         139.9719  144.3937  158.2667 C.ar    1  UNL1        0.1042
     18 C         139.1564  143.4168  157.4726 C.ar    1  UNL1        0.1181
     19 N         138.5946  143.8169  156.1406 N.ar    1  UNL1       -0.2384
     20 C         138.8485  145.1940  155.6026 C.ar    1  UNL1        0.1285
     21 C         139.6640  146.1708  156.3967 C.ar    1  UNL1        0.1607
     22 F         139.9177  147.5479  155.8586 F       1  UNL1       -0.2025
     23 C         140.2257  145.7707  157.7288 C.ar    1  UNL1        0.0520
     24 N         142.0186  139.5119  164.5539 N.pl3   1  UNL1       -0.3070
     25 C         141.0153  138.9505  163.5905 C.3     1  UNL1        0.0964
     26 C         141.4793  138.2363  162.3557 C.3     1  UNL1        0.0880
     27 C         142.9466  138.0835  162.0844 C.3     1  UNL1        0.2672
     28 F         144.2189  137.6880  161.3953 F       1  UNL1       -0.2042
     29 F         142.3851  137.3848  160.8817 F       1  UNL1       -0.2042
     30 C         143.9499  138.6449  163.0478 C.3     1  UNL1        0.0880
     31 C         143.4859  139.3591  164.2826 C.3     1  UNL1        0.0964
     32 C         139.6986  143.0827  170.7278 C.3     1  UNL1        0.1816
     33 S         140.1626  142.3685  169.4930 S.O2    1  UNL1        0.0105
     34 O         140.0883  143.6531  168.7221 O.2     1  UNL1       -0.1686
     35 O         140.2369  141.0839  170.2639 O.2     1  UNL1       -0.1686
@<TRIPOS>BOND
     1    32    33    1
     2    33    34    2
     3    33    35    2
     4    33     1    1
     5     1     2   ar
     6     2     3   ar
     7     3     4   ar
     8     4    24    1
     9    24    25    1
    10    25    26    1
    11    26    27    1
    12    27    28    1
    13    27    29    1
    14    27    30    1
    15    30    31    1
    16     4     5   ar
    17     5     7    1
    18     7     8    2
    19     7     9   am
    20     9    10    1
    21    10    11    1
    22    11    12   ar
    23    12    13   ar
    24    13    17    1
    25    17    18   ar
    26    18    19   ar
    27    19    20   ar
    28    20    21   ar
    29    21    22    1
    30    21    23   ar
    31    13    14   ar
    32    14    15   ar
    33    15    16    1
    34     5     6   ar
    35     6     1   ar
    36    31    24    1
    37    16     9    1
    38    15    11   ar
    39    23    17   ar
@<TRIPOS>MOLECULE
*****
 35 39 0 0 0
SMALL
GASTEIGER

@<TRIPOS>ATOM
      1 C         142.9426  137.9709  156.6884 C.ar    1  UNL1        0.1060
      2 C         143.7137  139.2035  156.3194 C.ar    1  UNL1        0.0196
      3 C         143.2757  140.5435  156.8317 C.ar    1  UNL1        0.0160
      4 C         142.0665  140.6509  157.7129 C.ar    1  UNL1        0.0523
      5 C         141.2954  139.4183  158.0819 C.ar    1  UNL1        0.0682
      6 C         141.7335  138.0783  157.5696 C.ar    1  UNL1        0.0241
      7 C         140.0863  139.5258  158.9631 C.2     1  UNL1        0.2508
      8 O         138.7171  139.5861  158.3537 O.2     1  UNL1       -0.2698
      9 N         140.2466  139.5731  160.4538 N.am    1  UNL1       -0.2661
     10 C         139.1364  139.6792  161.4569 C.3     1  UNL1        0.1236
     11 C         139.7489  139.6942  162.8262 C.ar    1  UNL1        0.0338
     12 C         139.4413  139.7691  164.2924 C.ar    1  UNL1        0.0991
     13 N         140.7398  139.7185  165.0416 N.ar    1  UNL1       -0.2271
     14 N         141.8499  139.6123  164.0384 N.ar    1  UNL1       -0.1680
     15 C         141.2375  139.5973  162.6691 C.ar    1  UNL1        0.0981
     16 C         141.5451  139.5225  161.2030 C.3     1  UNL1        0.1414
     17 C         140.9000  139.7657  166.5322 C.ar    1  UNL1        0.1042
     18 C         142.2376  139.4887  167.1520 C.ar    1  UNL1        0.1181
     19 N         142.3978  139.5359  168.6426 N.ar    1  UNL1       -0.2384
     20 C         141.2204  139.8602  169.5136 C.ar    1  UNL1        0.1285
     21 C         139.8828  140.1372  168.8938 C.ar    1  UNL1        0.1607
     22 F         138.7054  140.4615  169.7649 F       1  UNL1       -0.2025
     23 C         139.7226  140.0900  167.4032 C.ar    1  UNL1        0.0520
     24 N         141.6285  141.9910  158.2252 N.pl3   1  UNL1       -0.3070
     25 C         142.2597  142.5653  159.4588 C.3     1  UNL1        0.0964
     26 C         141.8218  143.9053  159.9710 C.3     1  UNL1        0.0880
     27 C         140.7526  144.6711  159.2497 C.3     1  UNL1        0.2672
     28 F         139.7860  145.7688  158.9166 F       1  UNL1       -0.2042
     29 F         141.0481  145.6266  160.3676 F       1  UNL1       -0.2042
     30 C         140.1214  144.0969  158.0161 C.3     1  UNL1        0.0880
     31 C         140.5593  142.7568  157.5038 C.3     1  UNL1        0.0964
     32 C         143.8185  135.2907  155.6639 C.3     1  UNL1        0.1816
     33 S         143.3805  136.6308  156.1762 S.O2    1  UNL1        0.0105
     34 O         142.0729  136.0376  156.6101 O.2     1  UNL1       -0.1686
     35 O         144.6882  137.2240  155.7423 O.2     1  UNL1       -0.1686
@<TRIPOS>BOND
     1    32    33    1
     2    33    34    2
     3    33    35    2
     4    33     1    1
     5     1     2   ar
     6     2     3   ar
     7     3     4   ar
     8     4    24    1
     9    24    25    1
    10    25    26    1
    11    26    27    1
    12    27    28    1
    13    27    29    1
    14    27    30    1
    15    30    31    1
    16     4     5   ar
    17     5     7    1
    18     7     8    2
    19     7     9   am
    20     9    10    1
    21    10    11    1
    22    11    12   ar
    23    12    13   ar
    24    13    17    1
    25    17    18   ar
    26    18    19   ar
    27    19    20   ar
    28    20    21   ar
    29    21    22    1
    30    21    23   ar
    31    13    14   ar
    32    14    15   ar
    33    15    16    1
    34     5     6   ar
    35     6     1   ar
    36    31    24    1
    37    16     9    1
    38    15    11   ar
    39    23    17   ar
@<TRIPOS>MOLECULE
*****
 35 39 0 0 0
SMALL
GASTEIGER

@<TRIPOS>ATOM
      1 C         142.3754  139.3595  157.6394 C.ar    1  UNL1        0.1060
      2 C         141.0340  139.9395  157.3018 C.ar    1  UNL1        0.0196
      3 C         140.4988  141.0992  158.0885 C.ar    1  UNL1        0.0160
      4 C         141.3052  141.6787  159.2128 C.ar    1  UNL1        0.0523
      5 C         142.6466  141.0986  159.5504 C.ar    1  UNL1        0.0682
      6 C         143.1818  139.9389  158.7637 C.ar    1  UNL1        0.0241
      7 C         143.4529  141.6781  160.6747 C.2     1  UNL1        0.2508
      8 O         144.6650  142.5102  160.3772 O.2     1  UNL1       -0.2698
      9 N         143.0471  141.4256  162.0965 N.am    1  UNL1       -0.2661
     10 C         143.7513  141.9365  163.3185 C.3     1  UNL1        0.1236
     11 C         143.0052  141.4444  164.5232 C.ar    1  UNL1        0.0338
     12 C         142.9793  141.4561  166.0229 C.ar    1  UNL1        0.0991
     13 N         141.7980  140.6483  166.4723 N.ar    1  UNL1       -0.2271
     14 N         141.0938  140.1374  165.2504 N.ar    1  UNL1       -0.1680
     15 C         141.8399  140.6295  164.0457 C.ar    1  UNL1        0.0981
     16 C         141.8658  140.6178  162.5460 C.3     1  UNL1        0.1414
     17 C         141.3922  140.3957  167.8941 C.ar    1  UNL1        0.1042
     18 C         142.4283  140.0352  168.9171 C.ar    1  UNL1        0.1181
     19 N         142.0225  139.7827  170.3389 N.ar    1  UNL1       -0.2384
     20 C         140.5805  139.8907  170.7377 C.ar    1  UNL1        0.1285
     21 C         139.5444  140.2512  169.7148 C.ar    1  UNL1        0.1607
     22 F         138.1024  140.3591  170.1137 F       1  UNL1       -0.2025
     23 C         139.9502  140.5037  168.2930 C.ar    1  UNL1        0.0520
     24 N         140.7700  142.8383  159.9995 N.pl3   1  UNL1       -0.3070
     25 C         141.3224  144.2149  159.7762 C.3     1  UNL1        0.0964
     26 C         140.7872  145.3745  160.5629 C.3     1  UNL1        0.0880
     27 C         139.6996  145.1576  161.5728 C.3     1  UNL1        0.2672
     28 F         138.6810  145.4546  162.6331 F       1  UNL1       -0.2042
     29 F         139.8983  146.6373  161.7178 F       1  UNL1       -0.2042
     30 C         139.1472  143.7810  161.7961 C.3     1  UNL1        0.0880
     31 C         139.6824  142.6214  161.0094 C.3     1  UNL1        0.0964
     32 C         143.4458  137.0402  156.0661 C.3     1  UNL1        0.1816
     33 S         142.9106  138.1998  156.8528 S.O2    1  UNL1        0.0105
     34 O         144.1782  138.9594  156.5955 O.2     1  UNL1       -0.1686
     35 O         141.6430  137.4403  157.1101 O.2     1  UNL1       -0.1686
@<TRIPOS>BOND
     1    32    33    1
     2    33    34    2
     3    33    35    2
     4    33     1    1
     5     1     2   ar
     6     2     3   ar
     7     3     4   ar
     8     4    24    1
     9    24    25    1
    10    25    26    1
    11    26    27    1
    12    27    28    1
    13    27    29    1
    14    27    30    1
    15    30    31    1
    16     4     5   ar
    17     5     7    1
    18     7     8    2
    19     7     9   am
    20     9    10    1
    21    10    11    1
    22    11    12   ar
    23    12    13   ar
    24    13    17    1
    25    17    18   ar
    26    18    19   ar
    27    19    20   ar
    28    20    21   ar
    29    21    22    1
    30    21    23   ar
    31    13    14   ar
    32    14    15   ar
    33    15    16    1
    34     5     6   ar
    35     6     1   ar
    36    31    24    1
    37    16     9    1
    38    15    11   ar
    39    23    17   ar
@<TRIPOS>MOLECULE
*****
 35 39 0 0 0
SMALL
GASTEIGER

@<TRIPOS>ATOM
      1 C         138.9363  139.6747  166.4518 C.ar    1  UNL1        0.1060
      2 C         140.1590  140.1358  167.1880 C.ar    1  UNL1        0.0196
      3 C         141.1344  141.0580  166.5186 C.ar    1  UNL1        0.0160
      4 C         140.8869  141.5190  165.1127 C.ar    1  UNL1        0.0523
      5 C         139.6641  141.0579  164.3764 C.ar    1  UNL1        0.0682
      6 C         138.6888  140.1357  165.0460 C.ar    1  UNL1        0.0241
      7 C         139.4167  141.5189  162.9707 C.2     1  UNL1        0.2508
      8 O         138.5919  142.7461  162.7180 O.2     1  UNL1       -0.2698
      9 N         139.9941  140.7529  161.8176 N.am    1  UNL1       -0.2661
     10 C         139.8327  141.0911  160.3651 C.3     1  UNL1        0.1236
     11 C         140.5732  140.0612  159.5643 C.ar    1  UNL1        0.0338
     12 C         140.9311  139.6338  158.1718 C.ar    1  UNL1        0.0991
     13 N         141.7713  138.3950  158.2687 N.ar    1  UNL1       -0.2271
     14 N         141.9327  138.0568  159.7211 N.ar    1  UNL1       -0.1680
     15 C         141.1922  139.0866  160.5219 C.ar    1  UNL1        0.0981
     16 C         140.8343  139.5141  161.9145 C.3     1  UNL1        0.1414
     17 C         142.3487  137.6289  157.1156 C.ar    1  UNL1        0.1042
     18 C         142.3308  138.2211  155.7375 C.ar    1  UNL1        0.1181
     19 N         142.9082  137.4550  154.5844 N.ar    1  UNL1       -0.2384
     20 C         143.5035  136.0967  154.8093 C.ar    1  UNL1        0.1285
     21 C         143.5215  135.5045  156.1874 C.ar    1  UNL1        0.1607
     22 F         144.1169  134.1462  156.4122 F       1  UNL1       -0.2025
     23 C         142.9440  136.2706  157.3405 C.ar    1  UNL1        0.0520
     24 N         141.8623  142.4412  164.4432 N.pl3   1  UNL1       -0.3070
     25 C         142.9871  141.8782  163.6260 C.3     1  UNL1        0.0964
     26 C         143.9625  142.8004  162.9565 C.3     1  UNL1        0.0880
     27 C         143.8131  144.2856  163.1042 C.3     1  UNL1        0.2672
     28 F         144.0874  145.7522  162.9494 F       1  UNL1       -0.2042
     29 F         145.0332  144.2319  162.2333 F       1  UNL1       -0.2042
     30 C         142.6882  144.8486  163.9214 C.3     1  UNL1        0.0880
     31 C         141.7129  143.9264  164.5909 C.3     1  UNL1        0.0964
     32 C         136.9855  137.8303  167.7908 C.3     1  UNL1        0.1816
     33 S         137.9609  138.7525  167.1213 S.O2    1  UNL1        0.0105
     34 O         137.6119  138.1553  165.7903 O.2     1  UNL1       -0.1686
     35 O         138.3098  139.3498  168.4523 O.2     1  UNL1       -0.1686
@<TRIPOS>BOND
     1    32    33    1
     2    33    34    2
     3    33    35    2
     4    33     1    1
     5     1     2   ar
     6     2     3   ar
     7     3     4   ar
     8     4    24    1
     9    24    25    1
    10    25    26    1
    11    26    27    1
    12    27    28    1
    13    27    29    1
    14    27    30    1
    15    30    31    1
    16     4     5   ar
    17     5     7    1
    18     7     8    2
    19     7     9   am
    20     9    10    1
    21    10    11    1
    22    11    12   ar
    23    12    13   ar
    24    13    17    1
    25    17    18   ar
    26    18    19   ar
    27    19    20   ar
    28    20    21   ar
    29    21    22    1
    30    21    23   ar
    31    13    14   ar
    32    14    15   ar
    33    15    16    1
    34     5     6   ar
    35     6     1   ar
    36    31    24    1
    37    16     9    1
    38    15    11   ar
    39    23    17   ar
