@<TRIPOS>MOLECULE
*****
 42 48 0 0 0
SMALL
GASTEIGER

@<TRIPOS>ATOM
      1 C         144.4567  142.9302  162.3689 C.ar    1  UNL1        0.0508
      2 C         145.2600  142.1297  163.3506 C.ar    1  UNL1        0.0147
      3 C         144.6966  141.8212  164.7061 C.ar    1  UNL1        0.0019
      4 C         143.3298  142.3133  165.0799 C.ar    1  UNL1        0.0090
      5 C         142.5265  143.1139  164.0982 C.ar    1  UNL1        0.0307
      6 S         141.1608  143.7284  164.1833 S.2     1  UNL1       -0.0869
      7 C         140.8802  144.4167  162.8804 C.ar    1  UNL1        0.0295
      8 C         139.6930  145.1911  162.3897 C.ar    1  UNL1        0.0065
      9 C         139.6982  145.7765  161.0086 C.ar    1  UNL1        0.0005
     10 C         140.8905  145.5873  160.1183 C.ar    1  UNL1        0.0000
     11 C         142.0776  144.8129  160.6090 C.ar    1  UNL1        0.0006
     12 C         142.0724  144.2275  161.9900 C.ar    1  UNL1        0.0077
     13 C         143.0899  143.4224  162.7427 C.ar    1  UNL1        0.0200
     14 C         142.7664  142.0048  166.4354 C.ar    1  UNL1        0.0352
     15 C         143.4539  142.5150  167.6673 C.ar    1  UNL1        0.0031
     16 C         142.8905  142.2065  169.0227 C.ar    1  UNL1        0.0003
     17 C         141.6397  141.3880  169.1465 C.ar    1  UNL1        0.0062
     18 C         140.9522  140.8779  167.9148 C.ar    1  UNL1        0.0736
     19 C         139.7013  140.0593  168.0385 C.ar    1  UNL1        0.2030
     20 O         139.1379  139.7508  169.3940 O.2     1  UNL1       -0.2863
     21 C         139.0139  139.5492  166.8068 C.ar    1  UNL1        0.0955
     22 C         139.5773  139.8576  165.4512 C.ar    1  UNL1        0.2024
     23 O         140.8282  140.6762  165.3275 O.2     1  UNL1       -0.4398
     24 C         141.5156  141.1863  166.5592 C.ar    1  UNL1        0.1498
     25 N         138.8899  139.3475  164.2195 N.pl3   1  UNL1       -0.2742
     26 C         138.1774  140.3025  163.3083 C.3     1  UNL1        0.1257
     27 C         137.4900  139.7924  162.0765 C.3     1  UNL1        0.1637
     28 O         137.5150  138.3273  161.7560 O.3     1  UNL1       -0.3501
     29 C         138.2274  137.3723  162.6672 C.3     1  UNL1        0.1637
     30 C         138.9148  137.8824  163.8990 C.3     1  UNL1        0.1257
     31 C         144.6370  142.3967  159.8326 C.2     1  UNL1        0.2425
     32 O         143.6905  141.2463  160.0072 O.2     1  UNL1       -0.2733
     33 N         145.0202  143.2387  161.0134 N.am    1  UNL1       -0.2828
     34 H         145.6414  143.9938  160.8987 H       1  UNL1        0.1549
     35 C         145.2005  142.7052  158.4771 C.3     1  UNL1        0.1588
     36 C         142.8917  140.0810  153.6003 C.3     1  UNL1        0.0897
     37 N         143.4689  140.7371  154.8195 N.3     1  UNL1       -0.2691
     38 C         144.5951  140.0810  155.5621 C.3     1  UNL1        0.0897
     39 C         145.1723  140.7371  156.7812 C.3     1  UNL1        0.0900
     40 N         144.6233  142.0492  157.2579 N.3     1  UNL1       -0.2626
     41 C         143.4971  142.7052  156.5154 C.3     1  UNL1        0.0900
     42 C         142.9199  142.0492  155.2962 C.3     1  UNL1        0.0897
@<TRIPOS>BOND
     1    36    37    1
     2    37    38    1
     3    38    39    1
     4    39    40    1
     5    40    35    1
     6    35    31    1
     7    31    32    2
     8    31    33   am
     9    33     1    1
    10     1     2   ar
    11     2     3   ar
    12     3     4   ar
    13     4    14    1
    14    14    15   ar
    15    15    16   ar
    16    16    17   ar
    17    17    18   ar
    18    18    19   ar
    19    19    20    2
    20    19    21   ar
    21    21    22   ar
    22    22    25    1
    23    25    26    1
    24    26    27    1
    25    27    28    1
    26    28    29    1
    27    29    30    1
    28    22    23   ar
    29    23    24   ar
    30     4     5   ar
    31     5     6   ar
    32     6     7   ar
    33     7     8   ar
    34     8     9   ar
    35     9    10   ar
    36    10    11   ar
    37    11    12   ar
    38    12    13   ar
    39    40    41    1
    40    41    42    1
    41    42    37    1
    42    13     1   ar
    43    24    14   ar
    44    13     5   ar
    45    24    18   ar
    46    12     7   ar
    47    30    25    1
    48    33    34    1
@<TRIPOS>MOLECULE
*****
 42 48 0 0 0
SMALL
GASTEIGER

@<TRIPOS>ATOM
      1 C         142.2026  138.5212  159.6526 C.ar    1  UNL1        0.0508
      2 C         143.3394  138.0370  160.5032 C.ar    1  UNL1        0.0147
      3 C         143.8514  138.8890  161.6266 C.ar    1  UNL1        0.0019
      4 C         143.2268  140.2251  161.8994 C.ar    1  UNL1        0.0090
      5 C         142.0900  140.7093  161.0488 C.ar    1  UNL1        0.0307
      6 S         141.2811  141.9721  161.0787 S.2     1  UNL1       -0.0869
      7 C         140.2691  141.9007  159.9739 C.ar    1  UNL1        0.0295
      8 C         139.2042  142.8568  159.5247 C.ar    1  UNL1        0.0065
      9 C         138.3228  142.5060  158.3629 C.ar    1  UNL1        0.0005
     10 C         138.5063  141.1990  157.6501 C.ar    1  UNL1        0.0000
     11 C         139.5712  140.2428  158.0992 C.ar    1  UNL1        0.0006
     12 C         140.4526  140.5936  159.2611 C.ar    1  UNL1        0.0077
     13 C         141.5780  139.8574  159.9255 C.ar    1  UNL1        0.0200
     14 C         143.7389  141.0770  163.0227 C.ar    1  UNL1        0.0352
     15 C         144.9465  141.9428  162.8172 C.ar    1  UNL1        0.0031
     16 C         145.4586  142.7947  163.9405 C.ar    1  UNL1        0.0003
     17 C         144.7631  142.7810  165.2694 C.ar    1  UNL1        0.0062
     18 C         143.5555  141.9153  165.4750 C.ar    1  UNL1        0.0736
     19 C         142.8600  141.9016  166.8039 C.ar    1  UNL1        0.2030
     20 O         143.3721  142.7535  167.9273 O.2     1  UNL1       -0.2863
     21 C         141.6524  141.0359  167.0095 C.ar    1  UNL1        0.0955
     22 C         141.1402  140.1839  165.8861 C.ar    1  UNL1        0.2024
     23 O         141.8358  140.1976  164.5572 O.2     1  UNL1       -0.4398
     24 C         143.0434  141.0633  164.3516 C.ar    1  UNL1        0.1498
     25 N         139.9326  139.3182  166.0917 N.pl3   1  UNL1       -0.2742
     26 C         139.6846  138.1494  165.1850 C.3     1  UNL1        0.1257
     27 C         138.4770  137.2837  165.3906 C.3     1  UNL1        0.1637
     28 O         137.5174  137.5869  166.5029 O.3     1  UNL1       -0.3501
     29 C         137.7655  138.7558  167.4097 C.3     1  UNL1        0.1637
     30 C         138.9731  139.6214  167.2041 C.3     1  UNL1        0.1257
     31 C         142.4164  137.6431  157.2168 C.2     1  UNL1        0.2425
     32 O         143.6542  138.4689  157.0277 O.2     1  UNL1       -0.2733
     33 N         141.6906  137.6692  158.5292 N.am    1  UNL1       -0.2828
     34 H         140.8781  137.1272  158.6533 H       1  UNL1        0.1549
     35 C         141.9043  136.7911  156.0935 C.3     1  UNL1        0.1588
     36 C         142.6943  130.8450  156.2375 C.3     1  UNL1        0.0897
     37 N         142.4968  132.3315  156.2015 N.3     1  UNL1       -0.2691
     38 C         143.3200  133.2192  157.0873 C.3     1  UNL1        0.0897
     39 C         143.1225  134.7057  157.0513 C.3     1  UNL1        0.0900
     40 N         142.1018  135.3046  156.1295 N.3     1  UNL1       -0.2626
     41 C         141.2787  134.4170  155.2437 C.3     1  UNL1        0.0900
     42 C         141.4762  132.9305  155.2797 C.3     1  UNL1        0.0897
@<TRIPOS>BOND
     1    36    37    1
     2    37    38    1
     3    38    39    1
     4    39    40    1
     5    40    35    1
     6    35    31    1
     7    31    32    2
     8    31    33   am
     9    33     1    1
    10     1     2   ar
    11     2     3   ar
    12     3     4   ar
    13     4    14    1
    14    14    15   ar
    15    15    16   ar
    16    16    17   ar
    17    17    18   ar
    18    18    19   ar
    19    19    20    2
    20    19    21   ar
    21    21    22   ar
    22    22    25    1
    23    25    26    1
    24    26    27    1
    25    27    28    1
    26    28    29    1
    27    29    30    1
    28    22    23   ar
    29    23    24   ar
    30     4     5   ar
    31     5     6   ar
    32     6     7   ar
    33     7     8   ar
    34     8     9   ar
    35     9    10   ar
    36    10    11   ar
    37    11    12   ar
    38    12    13   ar
    39    40    41    1
    40    41    42    1
    41    42    37    1
    42    13     1   ar
    43    24    14   ar
    44    13     5   ar
    45    24    18   ar
    46    12     7   ar
    47    30    25    1
    48    33    34    1
@<TRIPOS>MOLECULE
*****
 42 48 0 0 0
SMALL
GASTEIGER

@<TRIPOS>ATOM
      1 C         143.1774  139.5973  160.4116 C.ar    1  UNL1        0.0508
      2 C         143.8688  139.9299  159.1226 C.ar    1  UNL1        0.0147
      3 C         143.1334  139.8001  157.8218 C.ar    1  UNL1        0.0019
      4 C         141.7065  139.3377  157.8099 C.ar    1  UNL1        0.0090
      5 C         141.0151  139.0052  159.0988 C.ar    1  UNL1        0.0307
      6 S         139.6246  138.5286  159.3980 S.2     1  UNL1       -0.0869
      7 C         139.5007  138.3638  160.8838 C.ar    1  UNL1        0.0295
      8 C         138.3613  137.9210  161.7530 C.ar    1  UNL1        0.0065
      9 C         138.5357  137.8529  163.2412 C.ar    1  UNL1        0.0005
     10 C         139.8496  138.2277  163.8603 C.ar    1  UNL1        0.0000
     11 C         140.9891  138.6706  162.9911 C.ar    1  UNL1        0.0006
     12 C         140.8146  138.7386  161.5029 C.ar    1  UNL1        0.0077
     13 C         141.7505  139.1350  160.3997 C.ar    1  UNL1        0.0200
     14 C         140.9711  139.2079  156.5090 C.ar    1  UNL1        0.0352
     15 C         140.2443  140.3890  155.9371 C.ar    1  UNL1        0.0031
     16 C         139.5089  140.2593  154.6363 C.ar    1  UNL1        0.0003
     17 C         139.5002  138.9484  153.9072 C.ar    1  UNL1        0.0062
     18 C         140.2268  137.7673  154.4790 C.ar    1  UNL1        0.0736
     19 C         140.2181  136.4564  153.7500 C.ar    1  UNL1        0.2030
     20 O         139.4826  136.3266  152.4491 O.2     1  UNL1       -0.2863
     21 C         140.9448  135.2753  154.3218 C.ar    1  UNL1        0.0955
     22 C         141.6803  135.4051  155.6227 C.ar    1  UNL1        0.2024
     23 O         141.6890  136.7160  156.3518 O.2     1  UNL1       -0.4398
     24 C         140.9623  137.8971  155.7800 C.ar    1  UNL1        0.1498
     25 N         142.4069  134.2240  156.1945 N.pl3   1  UNL1       -0.2742
     26 C         143.5777  134.4342  157.1082 C.3     1  UNL1        0.1257
     27 C         144.3044  133.2532  157.6800 C.3     1  UNL1        0.1637
     28 O         143.8603  131.8619  157.3381 O.3     1  UNL1       -0.3501
     29 C         142.6895  131.6516  156.4243 C.3     1  UNL1        0.1637
     30 C         141.9628  132.8327  155.8525 C.3     1  UNL1        0.1257
     31 C         143.8316  141.0039  162.4958 C.2     1  UNL1        0.2425
     32 O         143.0149  142.1506  161.9784 O.2     1  UNL1       -0.2733
     33 N         143.9129  139.7272  161.7125 N.am    1  UNL1       -0.2828
     34 H         144.4490  138.9745  162.0522 H       1  UNL1        0.1549
     35 C         144.5671  141.1336  163.7966 C.3     1  UNL1        0.1588
     36 C         141.7858  139.8521  168.9563 C.3     1  UNL1        0.0897
     37 N         142.4811  140.1725  167.6664 N.3     1  UNL1       -0.2691
     38 C         142.7173  141.6016  167.2765 C.3     1  UNL1        0.0897
     39 C         143.4126  141.9220  165.9866 C.3     1  UNL1        0.0900
     40 N         143.8718  140.8132  165.0865 N.3     1  UNL1       -0.2626
     41 C         143.6356  139.3842  165.4764 C.3     1  UNL1        0.0900
     42 C         142.9403  139.0638  166.7663 C.3     1  UNL1        0.0897
@<TRIPOS>BOND
     1    36    37    1
     2    37    38    1
     3    38    39    1
     4    39    40    1
     5    40    35    1
     6    35    31    1
     7    31    32    2
     8    31    33   am
     9    33     1    1
    10     1     2   ar
    11     2     3   ar
    12     3     4   ar
    13     4    14    1
    14    14    15   ar
    15    15    16   ar
    16    16    17   ar
    17    17    18   ar
    18    18    19   ar
    19    19    20    2
    20    19    21   ar
    21    21    22   ar
    22    22    25    1
    23    25    26    1
    24    26    27    1
    25    27    28    1
    26    28    29    1
    27    29    30    1
    28    22    23   ar
    29    23    24   ar
    30     4     5   ar
    31     5     6   ar
    32     6     7   ar
    33     7     8   ar
    34     8     9   ar
    35     9    10   ar
    36    10    11   ar
    37    11    12   ar
    38    12    13   ar
    39    40    41    1
    40    41    42    1
    41    42    37    1
    42    13     1   ar
    43    24    14   ar
    44    13     5   ar
    45    24    18   ar
    46    12     7   ar
    47    30    25    1
    48    33    34    1
@<TRIPOS>MOLECULE
*****
 42 48 0 0 0
SMALL
GASTEIGER

@<TRIPOS>ATOM
      1 C         141.0848  145.0147  159.0681 C.ar    1  UNL1        0.0508
      2 C         140.4834  145.5649  160.3273 C.ar    1  UNL1        0.0147
      3 C         141.0446  145.1703  161.6612 C.ar    1  UNL1        0.0019
      4 C         142.2073  144.2256  161.7359 C.ar    1  UNL1        0.0090
      5 C         142.8087  143.6753  160.4767 C.ar    1  UNL1        0.0307
      6 S         143.9508  142.7325  160.2385 S.2     1  UNL1       -0.0869
      7 C         144.0954  142.5444  158.7574 C.ar    1  UNL1        0.0295
      8 C         145.0496  141.7272  157.9378 C.ar    1  UNL1        0.0065
      9 C         144.9511  141.7366  156.4411 C.ar    1  UNL1        0.0005
     10 C         143.8984  142.5632  155.7640 C.ar    1  UNL1        0.0000
     11 C         142.9442  143.3803  156.5835 C.ar    1  UNL1        0.0006
     12 C         143.0427  143.3709  158.0802 C.ar    1  UNL1        0.0077
     13 C         142.2475  144.0699  159.1428 C.ar    1  UNL1        0.0200
     14 C         142.7685  143.8310  163.0698 C.ar    1  UNL1        0.0352
     15 C         143.8223  144.6776  163.7203 C.ar    1  UNL1        0.0031
     16 C         144.3836  144.2831  165.0541 C.ar    1  UNL1        0.0003
     17 C         143.8911  143.0420  165.7377 C.ar    1  UNL1        0.0062
     18 C         142.8374  142.1955  165.0873 C.ar    1  UNL1        0.0736
     19 C         142.3449  140.9544  165.7708 C.ar    1  UNL1        0.2030
     20 O         142.9061  140.5598  167.1047 O.2     1  UNL1       -0.2863
     21 C         141.2912  140.1079  165.1205 C.ar    1  UNL1        0.0955
     22 C         140.7299  140.5024  163.7865 C.ar    1  UNL1        0.2024
     23 O         141.2224  141.7435  163.1029 O.2     1  UNL1       -0.4398
     24 C         142.2761  142.5900  163.7533 C.ar    1  UNL1        0.1498
     25 N         139.6761  139.6559  163.1361 N.pl3   1  UNL1       -0.2742
     26 C         138.8261  140.2270  162.0402 C.3     1  UNL1        0.1257
     27 C         137.7724  139.3805  161.3898 C.3     1  UNL1        0.1637
     28 O         137.5687  137.9628  161.8354 O.3     1  UNL1       -0.3501
     29 C         138.4187  137.3916  162.9313 C.3     1  UNL1        0.1637
     30 C         139.4725  138.2381  163.5817 C.3     1  UNL1        0.1257
     31 C         139.5176  144.5289  157.0536 C.2     1  UNL1        0.2425
     32 O         139.0730  143.2540  157.7069 O.2     1  UNL1       -0.2733
     33 N         140.5235  145.4093  157.7341 N.am    1  UNL1       -0.2828
     34 H         140.8153  146.2460  157.3053 H       1  UNL1        0.1549
     35 C         138.9563  144.9235  155.7198 C.3     1  UNL1        0.1588
     36 C         140.8445  149.9479  153.0383 C.3     1  UNL1        0.0897
     37 N         140.3725  148.6918  153.7086 N.3     1  UNL1       -0.2691
     38 C         140.9133  147.3616  153.2751 C.3     1  UNL1        0.0897
     39 C         140.4413  146.1055  153.9455 C.3     1  UNL1        0.0900
     40 N         139.4284  146.1796  155.0494 N.3     1  UNL1       -0.2626
     41 C         138.8875  147.5098  155.4829 C.3     1  UNL1        0.0900
     42 C         139.3596  148.7659  154.8126 C.3     1  UNL1        0.0897
@<TRIPOS>BOND
     1    36    37    1
     2    37    38    1
     3    38    39    1
     4    39    40    1
     5    40    35    1
     6    35    31    1
     7    31    32    2
     8    31    33   am
     9    33     1    1
    10     1     2   ar
    11     2     3   ar
    12     3     4   ar
    13     4    14    1
    14    14    15   ar
    15    15    16   ar
    16    16    17   ar
    17    17    18   ar
    18    18    19   ar
    19    19    20    2
    20    19    21   ar
    21    21    22   ar
    22    22    25    1
    23    25    26    1
    24    26    27    1
    25    27    28    1
    26    28    29    1
    27    29    30    1
    28    22    23   ar
    29    23    24   ar
    30     4     5   ar
    31     5     6   ar
    32     6     7   ar
    33     7     8   ar
    34     8     9   ar
    35     9    10   ar
    36    10    11   ar
    37    11    12   ar
    38    12    13   ar
    39    40    41    1
    40    41    42    1
    41    42    37    1
    42    13     1   ar
    43    24    14   ar
    44    13     5   ar
    45    24    18   ar
    46    12     7   ar
    47    30    25    1
    48    33    34    1
@<TRIPOS>MOLECULE
*****
 42 48 0 0 0
SMALL
GASTEIGER

@<TRIPOS>ATOM
      1 C         139.3179  142.2926  163.0045 C.ar    1  UNL1        0.0508
      2 C         138.3104  142.3162  161.8934 C.ar    1  UNL1        0.0147
      3 C         138.6711  142.9158  160.5666 C.ar    1  UNL1        0.0019
      4 C         140.0392  143.4917  160.3509 C.ar    1  UNL1        0.0090
      5 C         141.0467  143.4680  161.4619 C.ar    1  UNL1        0.0307
      6 S         142.4625  143.9565  161.5436 S.2     1  UNL1       -0.0869
      7 C         142.9769  143.6589  162.9208 C.ar    1  UNL1        0.0295
      8 C         144.3032  143.9133  163.5736 C.ar    1  UNL1        0.0065
      9 C         144.5316  143.4952  164.9959 C.ar    1  UNL1        0.0005
     10 C         143.4336  142.8228  165.7655 C.ar    1  UNL1        0.0000
     11 C         142.1073  142.5683  165.1127 C.ar    1  UNL1        0.0006
     12 C         141.8790  142.9864  163.6904 C.ar    1  UNL1        0.0077
     13 C         140.6860  142.8685  162.7888 C.ar    1  UNL1        0.0200
     14 C         140.3998  144.0913  159.0241 C.ar    1  UNL1        0.0352
     15 C         140.1017  145.5352  158.7476 C.ar    1  UNL1        0.0031
     16 C         140.4623  146.1348  157.4208 C.ar    1  UNL1        0.0003
     17 C         141.1211  145.2905  156.3705 C.ar    1  UNL1        0.0062
     18 C         141.4192  143.8467  156.6469 C.ar    1  UNL1        0.0736
     19 C         142.0779  143.0024  155.5965 C.ar    1  UNL1        0.2030
     20 O         142.4386  143.6020  154.2697 O.2     1  UNL1       -0.2863
     21 C         142.3760  141.5586  155.8729 C.ar    1  UNL1        0.0955
     22 C         142.0154  140.9589  157.1998 C.ar    1  UNL1        0.2024
     23 O         141.3566  141.8032  158.2502 O.2     1  UNL1       -0.4398
     24 C         141.0585  143.2471  157.9737 C.ar    1  UNL1        0.1498
     25 N         142.3135  139.5151  157.4762 N.pl3   1  UNL1       -0.2742
     26 C         142.4869  139.0422  158.8890 C.3     1  UNL1        0.1257
     27 C         142.7850  137.5984  159.1655 C.3     1  UNL1        0.1637
     28 O         142.9097  136.6274  158.0290 O.3     1  UNL1       -0.3501
     29 C         142.7363  137.1003  156.6161 C.3     1  UNL1        0.1637
     30 C         142.4382  138.5441  156.3397 C.3     1  UNL1        0.1257
     31 C         139.3107  140.2662  164.6306 C.2     1  UNL1        0.2425
     32 O         140.0249  139.4391  163.6032 O.2     1  UNL1       -0.2733
     33 N         138.9572  141.6929  164.3314 N.am    1  UNL1       -0.2828
     34 H         138.4884  142.2358  165.0058 H       1  UNL1        0.1549
     35 C         138.9500  139.6667  165.9574 C.3     1  UNL1        0.1588
     36 C         142.7856  140.0324  170.5568 C.3     1  UNL1        0.0897
     37 N         141.8267  139.9410  169.4070 N.3     1  UNL1       -0.2691
     38 C         142.3376  139.6601  168.0249 C.3     1  UNL1        0.0897
     39 C         141.3787  139.5687  166.8751 C.3     1  UNL1        0.0900
     40 N         139.9089  139.7581  167.1072 N.3     1  UNL1       -0.2626
     41 C         139.3980  140.0390  168.4893 C.3     1  UNL1        0.0900
     42 C         140.3569  140.1305  169.6392 C.3     1  UNL1        0.0897
@<TRIPOS>BOND
     1    36    37    1
     2    37    38    1
     3    38    39    1
     4    39    40    1
     5    40    35    1
     6    35    31    1
     7    31    32    2
     8    31    33   am
     9    33     1    1
    10     1     2   ar
    11     2     3   ar
    12     3     4   ar
    13     4    14    1
    14    14    15   ar
    15    15    16   ar
    16    16    17   ar
    17    17    18   ar
    18    18    19   ar
    19    19    20    2
    20    19    21   ar
    21    21    22   ar
    22    22    25    1
    23    25    26    1
    24    26    27    1
    25    27    28    1
    26    28    29    1
    27    29    30    1
    28    22    23   ar
    29    23    24   ar
    30     4     5   ar
    31     5     6   ar
    32     6     7   ar
    33     7     8   ar
    34     8     9   ar
    35     9    10   ar
    36    10    11   ar
    37    11    12   ar
    38    12    13   ar
    39    40    41    1
    40    41    42    1
    41    42    37    1
    42    13     1   ar
    43    24    14   ar
    44    13     5   ar
    45    24    18   ar
    46    12     7   ar
    47    30    25    1
    48    33    34    1
@<TRIPOS>MOLECULE
*****
 42 48 0 0 0
SMALL
GASTEIGER

@<TRIPOS>ATOM
      1 C         142.7123  138.8875  162.3689 C.ar    1  UNL1        0.0508
      2 C         143.9913  138.6262  161.6301 C.ar    1  UNL1        0.0147
      3 C         144.1659  139.1348  160.2298 C.ar    1  UNL1        0.0019
      4 C         143.0615  139.9047  159.5684 C.ar    1  UNL1        0.0090
      5 C         141.7825  140.1660  160.3073 C.ar    1  UNL1        0.0307
      6 S         140.5277  140.8894  159.9171 S.2     1  UNL1       -0.0869
      7 C         139.5777  140.8279  161.0763 C.ar    1  UNL1        0.0295
      8 C         138.1909  141.3668  161.2671 C.ar    1  UNL1        0.0065
      9 C         137.4718  141.1443  162.5645 C.ar    1  UNL1        0.0005
     10 C         138.1394  140.3829  163.6711 C.ar    1  UNL1        0.0000
     11 C         139.5261  139.8439  163.4802 C.ar    1  UNL1        0.0006
     12 C         140.2453  140.0664  162.1828 C.ar    1  UNL1        0.0077
     13 C         141.6079  139.6574  161.7076 C.ar    1  UNL1        0.0200
     14 C         143.2361  140.4134  158.1681 C.ar    1  UNL1        0.0352
     15 C         143.4206  141.8814  157.9209 C.ar    1  UNL1        0.0031
     16 C         143.5952  142.3901  156.5207 C.ar    1  UNL1        0.0003
     17 C         143.5853  141.4308  155.3676 C.ar    1  UNL1        0.0062
     18 C         143.4008  139.9628  155.6147 C.ar    1  UNL1        0.0736
     19 C         143.3909  139.0035  154.4616 C.ar    1  UNL1        0.2030
     20 O         143.5655  139.5122  153.0613 O.2     1  UNL1       -0.2863
     21 C         143.2064  137.5356  154.7088 C.ar    1  UNL1        0.0955
     22 C         143.0318  137.0269  156.1091 C.ar    1  UNL1        0.2024
     23 O         143.0417  137.9862  157.2622 O.2     1  UNL1       -0.4398
     24 C         143.2262  139.4541  157.0151 C.ar    1  UNL1        0.1498
     25 N         142.8474  135.5589  156.3562 N.pl3   1  UNL1       -0.2742
     26 C         141.9177  134.7633  155.4888 C.3     1  UNL1        0.1257
     27 C         141.7332  133.2954  155.7359 C.3     1  UNL1        0.1637
     28 O         142.4784  132.6231  156.8506 O.3     1  UNL1       -0.3501
     29 C         143.4081  133.4187  157.7181 C.3     1  UNL1        0.1637
     30 C         143.5926  134.8866  157.4710 C.3     1  UNL1        0.1257
     31 C         143.1348  139.1323  164.9208 C.2     1  UNL1        0.2425
     32 O         143.9063  140.3943  164.6720 O.2     1  UNL1       -0.2733
     33 N         142.5378  138.3788  163.7693 N.am    1  UNL1       -0.2828
     34 H         142.0314  137.5504  163.9326 H       1  UNL1        0.1549
     35 C         142.9602  138.6236  166.3210 C.3     1  UNL1        0.1588
     36 C         139.6788  141.7425  170.2586 C.3     1  UNL1        0.0897
     37 N         140.4992  140.9628  169.2743 N.3     1  UNL1       -0.2691
     38 C         141.7538  140.2737  169.7228 C.3     1  UNL1        0.0897
     39 C         142.5741  139.4940  168.7384 C.3     1  UNL1        0.0900
     40 N         142.1399  139.4033  167.3054 N.3     1  UNL1       -0.2626
     41 C         140.8852  140.0923  166.8569 C.3     1  UNL1        0.0900
     42 C         140.0649  140.8721  167.8413 C.3     1  UNL1        0.0897
@<TRIPOS>BOND
     1    36    37    1
     2    37    38    1
     3    38    39    1
     4    39    40    1
     5    40    35    1
     6    35    31    1
     7    31    32    2
     8    31    33   am
     9    33     1    1
    10     1     2   ar
    11     2     3   ar
    12     3     4   ar
    13     4    14    1
    14    14    15   ar
    15    15    16   ar
    16    16    17   ar
    17    17    18   ar
    18    18    19   ar
    19    19    20    2
    20    19    21   ar
    21    21    22   ar
    22    22    25    1
    23    25    26    1
    24    26    27    1
    25    27    28    1
    26    28    29    1
    27    29    30    1
    28    22    23   ar
    29    23    24   ar
    30     4     5   ar
    31     5     6   ar
    32     6     7   ar
    33     7     8   ar
    34     8     9   ar
    35     9    10   ar
    36    10    11   ar
    37    11    12   ar
    38    12    13   ar
    39    40    41    1
    40    41    42    1
    41    42    37    1
    42    13     1   ar
    43    24    14   ar
    44    13     5   ar
    45    24    18   ar
    46    12     7   ar
    47    30    25    1
    48    33    34    1
@<TRIPOS>MOLECULE
*****
 42 48 0 0 0
SMALL
GASTEIGER

@<TRIPOS>ATOM
      1 C         141.5826  140.5768  157.3617 C.ar    1  UNL1        0.0508
      2 C         142.6025  141.0950  158.3320 C.ar    1  UNL1        0.0147
      3 C         142.2067  142.1048  159.3681 C.ar    1  UNL1        0.0019
      4 C         140.7911  142.5964  159.4341 C.ar    1  UNL1        0.0090
      5 C         139.7712  142.0781  158.4638 C.ar    1  UNL1        0.0307
      6 S         138.3116  142.3754  158.2874 S.2     1  UNL1       -0.0869
      7 C         137.8053  141.5494  157.1423 C.ar    1  UNL1        0.0295
      8 C         136.4483  141.4285  156.5148 C.ar    1  UNL1        0.0065
      9 C         136.2380  140.4998  155.3559 C.ar    1  UNL1        0.0005
     10 C         137.3847  139.6919  154.8245 C.ar    1  UNL1        0.0000
     11 C         138.7417  139.8128  155.4520 C.ar    1  UNL1        0.0006
     12 C         138.9520  140.7416  156.6109 C.ar    1  UNL1        0.0077
     13 C         140.1670  141.0683  157.4277 C.ar    1  UNL1        0.0200
     14 C         140.3953  143.6062  160.4702 C.ar    1  UNL1        0.0352
     15 C         140.2920  145.0569  160.1028 C.ar    1  UNL1        0.0031
     16 C         139.8963  146.0667  161.1388 C.ar    1  UNL1        0.0003
     17 C         139.6037  145.6259  162.5425 C.ar    1  UNL1        0.0062
     18 C         139.7070  144.1753  162.9099 C.ar    1  UNL1        0.0736
     19 C         139.4144  143.7345  164.3136 C.ar    1  UNL1        0.2030
     20 O         139.0186  144.7443  165.3497 O.2     1  UNL1       -0.2863
     21 C         139.5177  142.2839  164.6810 C.ar    1  UNL1        0.0955
     22 C         139.9135  141.2740  163.6448 C.ar    1  UNL1        0.2024
     23 O         140.2060  141.7148  162.2412 O.2     1  UNL1       -0.4398
     24 C         140.1028  143.1654  161.8737 C.ar    1  UNL1        0.1498
     25 N         140.0167  139.8234  164.0123 N.pl3   1  UNL1       -0.2742
     26 C         141.2666  139.0568  163.6964 C.3     1  UNL1        0.1257
     27 C         141.3699  137.6062  164.0639 C.3     1  UNL1        0.1637
     28 O         140.2232  136.9222  164.7472 O.3     1  UNL1       -0.3501
     29 C         138.9731  137.6887  165.0631 C.3     1  UNL1        0.1637
     30 C         138.8699  139.1393  164.6957 C.3     1  UNL1        0.1257
     31 C         141.6383  138.1191  156.5209 C.2     1  UNL1        0.2425
     32 O         140.9023  137.6811  157.7522 O.2     1  UNL1       -0.2733
     33 N         141.9785  139.5669  156.3255 N.am    1  UNL1       -0.2828
     34 H         142.4616  139.8544  155.5173 H       1  UNL1        0.1549
     35 C         142.0341  137.1094  155.4847 C.3     1  UNL1        0.1588
     36 C         142.9149  131.3861  157.0559 C.3     1  UNL1        0.0897
     37 N         142.6947  132.8169  156.6631 N.3     1  UNL1       -0.2691
     38 C         143.5020  133.9044  157.3078 C.3     1  UNL1        0.0897
     39 C         143.2818  135.3352  156.9150 C.3     1  UNL1        0.0900
     40 N         142.2543  135.6786  155.8775 N.3     1  UNL1       -0.2626
     41 C         141.4470  134.5911  155.2328 C.3     1  UNL1        0.0900
     42 C         141.6672  133.1603  155.6255 C.3     1  UNL1        0.0897
@<TRIPOS>BOND
     1    36    37    1
     2    37    38    1
     3    38    39    1
     4    39    40    1
     5    40    35    1
     6    35    31    1
     7    31    32    2
     8    31    33   am
     9    33     1    1
    10     1     2   ar
    11     2     3   ar
    12     3     4   ar
    13     4    14    1
    14    14    15   ar
    15    15    16   ar
    16    16    17   ar
    17    17    18   ar
    18    18    19   ar
    19    19    20    2
    20    19    21   ar
    21    21    22   ar
    22    22    25    1
    23    25    26    1
    24    26    27    1
    25    27    28    1
    26    28    29    1
    27    29    30    1
    28    22    23   ar
    29    23    24   ar
    30     4     5   ar
    31     5     6   ar
    32     6     7   ar
    33     7     8   ar
    34     8     9   ar
    35     9    10   ar
    36    10    11   ar
    37    11    12   ar
    38    12    13   ar
    39    40    41    1
    40    41    42    1
    41    42    37    1
    42    13     1   ar
    43    24    14   ar
    44    13     5   ar
    45    24    18   ar
    46    12     7   ar
    47    30    25    1
    48    33    34    1
@<TRIPOS>MOLECULE
*****
 42 48 0 0 0
SMALL
GASTEIGER

@<TRIPOS>ATOM
      1 C         140.9629  144.8664  159.5161 C.ar    1  UNL1        0.0508
      2 C         140.5182  145.5605  160.7693 C.ar    1  UNL1        0.0147
      3 C         141.1252  145.1873  162.0892 C.ar    1  UNL1        0.0019
      4 C         142.1771  144.1200  162.1559 C.ar    1  UNL1        0.0090
      5 C         142.6219  143.4259  160.9028 C.ar    1  UNL1        0.0307
      6 S         143.6312  142.3434  160.6591 S.2     1  UNL1       -0.0869
      7 C         143.6480  142.0476  159.1887 C.ar    1  UNL1        0.0295
      8 C         144.4439  141.0752  158.3695 C.ar    1  UNL1        0.0065
      9 C         144.2407  141.0026  156.8851 C.ar    1  UNL1        0.0005
     10 C         143.2416  141.9023  156.2199 C.ar    1  UNL1        0.0000
     11 C         142.4458  142.8746  157.0391 C.ar    1  UNL1        0.0006
     12 C         142.6489  142.9472  158.5235 C.ar    1  UNL1        0.0077
     13 C         142.0148  143.7991  159.5829 C.ar    1  UNL1        0.0200
     14 C         142.7842  143.7468  163.4759 C.ar    1  UNL1        0.0352
     15 C         143.8161  144.6354  164.1048 C.ar    1  UNL1        0.0031
     16 C         144.4232  144.2623  165.4247 C.ar    1  UNL1        0.0003
     17 C         143.9984  143.0005  166.1157 C.ar    1  UNL1        0.0062
     18 C         142.9665  142.1119  165.4868 C.ar    1  UNL1        0.0736
     19 C         142.5417  140.8501  166.1778 C.ar    1  UNL1        0.2030
     20 O         143.1488  140.4769  167.4977 O.2     1  UNL1       -0.2863
     21 C         141.5098  139.9615  165.5488 C.ar    1  UNL1        0.0955
     22 C         140.9026  140.3347  164.2289 C.ar    1  UNL1        0.2024
     23 O         141.3275  141.5965  163.5379 O.2     1  UNL1       -0.4398
     24 C         142.3594  142.4851  164.1668 C.ar    1  UNL1        0.1498
     25 N         139.8707  139.4461  163.5999 N.pl3   1  UNL1       -0.2742
     26 C         139.5835  138.0968  164.1888 C.3     1  UNL1        0.1257
     27 C         138.5516  137.2082  163.5599 C.3     1  UNL1        0.1637
     28 O         137.8069  137.6689  162.3421 O.3     1  UNL1       -0.3501
     29 C         138.0941  139.0182  161.7532 C.3     1  UNL1        0.1637
     30 C         139.1260  139.9068  162.3821 C.3     1  UNL1        0.1257
     31 C         141.1502  146.0357  157.2036 C.2     1  UNL1        0.2425
     32 O         142.5516  146.4586  157.5308 O.2     1  UNL1       -0.2733
     33 N         140.3558  145.2396  158.1962 N.am    1  UNL1       -0.2828
     34 H         139.4360  144.9621  157.9813 H       1  UNL1        0.1549
     35 C         140.5430  146.4090  155.8837 C.3     1  UNL1        0.1588
     36 C         136.9433  142.5437  153.0374 C.3     1  UNL1        0.0897
     37 N         137.8432  143.5100  153.7490 N.3     1  UNL1       -0.2691
     38 C         137.2542  144.6373  154.5440 C.3     1  UNL1        0.0897
     39 C         138.1541  145.6037  155.2556 C.3     1  UNL1        0.0900
     40 N         139.6431  145.4426  155.1722 N.3     1  UNL1       -0.2626
     41 C         140.2322  144.3153  154.3771 C.3     1  UNL1        0.0900
     42 C         139.3323  143.3490  153.6656 C.3     1  UNL1        0.0897
@<TRIPOS>BOND
     1    36    37    1
     2    37    38    1
     3    38    39    1
     4    39    40    1
     5    40    35    1
     6    35    31    1
     7    31    32    2
     8    31    33   am
     9    33     1    1
    10     1     2   ar
    11     2     3   ar
    12     3     4   ar
    13     4    14    1
    14    14    15   ar
    15    15    16   ar
    16    16    17   ar
    17    17    18   ar
    18    18    19   ar
    19    19    20    2
    20    19    21   ar
    21    21    22   ar
    22    22    25    1
    23    25    26    1
    24    26    27    1
    25    27    28    1
    26    28    29    1
    27    29    30    1
    28    22    23   ar
    29    23    24   ar
    30     4     5   ar
    31     5     6   ar
    32     6     7   ar
    33     7     8   ar
    34     8     9   ar
    35     9    10   ar
    36    10    11   ar
    37    11    12   ar
    38    12    13   ar
    39    40    41    1
    40    41    42    1
    41    42    37    1
    42    13     1   ar
    43    24    14   ar
    44    13     5   ar
    45    24    18   ar
    46    12     7   ar
    47    30    25    1
    48    33    34    1
@<TRIPOS>MOLECULE
*****
 42 48 0 0 0
SMALL
GASTEIGER

@<TRIPOS>ATOM
      1 C         141.0647  138.0272  157.0284 C.ar    1  UNL1        0.0508
      2 C         142.1467  138.5185  157.9439 C.ar    1  UNL1        0.0147
      3 C         142.1582  139.9503  158.3908 C.ar    1  UNL1        0.0019
      4 C         141.0877  140.8908  157.9223 C.ar    1  UNL1        0.0090
      5 C         140.0058  140.3995  157.0068 C.ar    1  UNL1        0.0307
      6 S         138.8274  141.0886  156.3850 S.2     1  UNL1       -0.0869
      7 C         138.0877  140.0827  155.5538 C.ar    1  UNL1        0.0295
      8 C         136.8507  140.1909  154.7124 C.ar    1  UNL1        0.0065
      9 C         136.3348  138.9884  153.9792 C.ar    1  UNL1        0.0005
     10 C         137.0559  137.6776  154.0873 C.ar    1  UNL1        0.0000
     11 C         138.2930  137.5693  154.9286 C.ar    1  UNL1        0.0006
     12 C         138.8089  138.7718  155.6619 C.ar    1  UNL1        0.0077
     13 C         139.9943  138.9677  156.5599 C.ar    1  UNL1        0.0200
     14 C         141.0992  142.3226  158.3692 C.ar    1  UNL1        0.0352
     15 C         141.5618  143.3976  157.4308 C.ar    1  UNL1        0.0031
     16 C         141.5733  144.8294  157.8776 C.ar    1  UNL1        0.0003
     17 C         141.1222  145.1863  159.2629 C.ar    1  UNL1        0.0062
     18 C         140.6597  144.1114  160.2014 C.ar    1  UNL1        0.0736
     19 C         140.2086  144.4684  161.5867 C.ar    1  UNL1        0.2030
     20 O         140.2201  145.9002  162.0336 O.2     1  UNL1       -0.2863
     21 C         139.7460  143.3935  162.5251 C.ar    1  UNL1        0.0955
     22 C         139.7345  141.9616  162.0782 C.ar    1  UNL1        0.2024
     23 O         140.1856  141.6047  160.6929 O.2     1  UNL1       -0.4398
     24 C         140.6482  142.6795  159.7545 C.ar    1  UNL1        0.1498
     25 N         139.2719  140.8867  163.0166 N.pl3   1  UNL1       -0.2742
     26 C         138.7964  141.2464  164.3930 C.3     1  UNL1        0.1257
     27 C         138.3338  140.1715  165.3314 C.3     1  UNL1        0.1637
     28 O         138.3468  138.7370  164.8935 O.3     1  UNL1       -0.3501
     29 C         138.8223  138.3773  163.5171 C.3     1  UNL1        0.1637
     30 C         139.2849  139.4521  162.5787 C.3     1  UNL1        0.1257
     31 C         141.7801  136.1937  155.3323 C.2     1  UNL1        0.2425
     32 O         142.5183  137.2238  154.5300 O.2     1  UNL1       -0.2733
     33 N         141.0533  136.5953  156.5815 N.am    1  UNL1       -0.2828
     34 H         140.5688  135.9191  157.1081 H       1  UNL1        0.1549
     35 C         141.7686  134.7619  154.8854 C.3     1  UNL1        0.1588
     36 C         144.6802  130.5994  158.0787 C.3     1  UNL1        0.0897
     37 N         143.9523  131.6400  157.2804 N.3     1  UNL1       -0.2691
     38 C         144.4440  133.0571  157.2700 C.3     1  UNL1        0.0897
     39 C         143.7162  134.0977  156.4717 C.3     1  UNL1        0.0900
     40 N         142.4965  133.7212  155.6837 N.3     1  UNL1       -0.2626
     41 C         142.0048  132.3042  155.6941 C.3     1  UNL1        0.0900
     42 C         142.7326  131.2635  156.4924 C.3     1  UNL1        0.0897
@<TRIPOS>BOND
     1    36    37    1
     2    37    38    1
     3    38    39    1
     4    39    40    1
     5    40    35    1
     6    35    31    1
     7    31    32    2
     8    31    33   am
     9    33     1    1
    10     1     2   ar
    11     2     3   ar
    12     3     4   ar
    13     4    14    1
    14    14    15   ar
    15    15    16   ar
    16    16    17   ar
    17    17    18   ar
    18    18    19   ar
    19    19    20    2
    20    19    21   ar
    21    21    22   ar
    22    22    25    1
    23    25    26    1
    24    26    27    1
    25    27    28    1
    26    28    29    1
    27    29    30    1
    28    22    23   ar
    29    23    24   ar
    30     4     5   ar
    31     5     6   ar
    32     6     7   ar
    33     7     8   ar
    34     8     9   ar
    35     9    10   ar
    36    10    11   ar
    37    11    12   ar
    38    12    13   ar
    39    40    41    1
    40    41    42    1
    41    42    37    1
    42    13     1   ar
    43    24    14   ar
    44    13     5   ar
    45    24    18   ar
    46    12     7   ar
    47    30    25    1
    48    33    34    1
