@<TRIPOS>MOLECULE
*****
 24 27 0 0 0
SMALL
GASTEIGER

@<TRIPOS>ATOM
      1 C         138.6964  139.8844  169.2828 C.3     1  UNL1        0.0540
      2 C         139.3652  139.9439  167.9415 C.ar    1  UNL1        0.0805
      3 N         138.9107  139.2396  166.6975 N.ar    1  UNL1       -0.1685
      4 N         139.8706  139.5786  165.5959 N.ar    1  UNL1       -0.2167
      5 C         140.9184  140.4925  166.1589 C.ar    1  UNL1        0.0636
      6 C         142.0754  141.0778  165.4048 C.3     1  UNL1        0.0522
      7 C         140.6060  140.7182  167.6086 C.ar    1  UNL1        0.0289
      8 C         139.7959  139.0897  164.1797 C.ar    1  UNL1        0.1636
      9 N         140.7341  138.0197  163.7052 N.ar    1  UNL1       -0.2051
     10 C         140.6594  137.5308  162.2892 C.ar    1  UNL1        0.2000
     11 N         139.6467  138.1118  161.3475 N.ar    1  UNL1       -0.2271
     12 C         138.7086  139.1817  161.8219 C.ar    1  UNL1        0.0769
     13 C         138.7832  139.6707  163.2381 C.ar    1  UNL1        0.0444
     14 C         137.7351  140.7284  163.4191 C.3     1  UNL1        0.1002
     15 N         137.0127  140.8931  162.1149 N.3     1  UNL1       -0.2886
     16 C         137.6143  139.9372  161.1278 C.3     1  UNL1        0.1153
     17 H         137.1190  141.8502  161.7788 H       1  UNL1        0.1239
     18 C         141.3959  141.5689  168.5586 C.ar    1  UNL1        0.0025
     19 C         140.7784  142.7990  169.1548 C.ar    1  UNL1        0.0024
     20 C         141.5683  143.6497  170.1047 C.ar    1  UNL1        0.0296
     21 C         142.9758  143.2702  170.4585 C.ar    1  UNL1        0.1401
     22 F         143.7656  144.1208  171.4084 F       1  UNL1       -0.2042
     23 C         143.5933  142.0401  169.8623 C.ar    1  UNL1        0.0296
     24 C         142.8033  141.1895  168.9123 C.ar    1  UNL1        0.0024
@<TRIPOS>BOND
     1     1     2    1
     2     2     3   ar
     3     3     4   ar
     4     4     8    1
     5     8     9   ar
     6     9    10   ar
     7    10    11   ar
     8    11    12   ar
     9    12    13   ar
    10    13    14    1
    11    14    15    1
    12    15    16    1
    13     4     5   ar
    14     5     6    1
    15     5     7   ar
    16     7    18    1
    17    18    19   ar
    18    19    20   ar
    19    20    21   ar
    20    21    22    1
    21    21    23   ar
    22    23    24   ar
    23     7     2   ar
    24    24    18   ar
    25    13     8   ar
    26    16    12    1
    27    15    17    1
@<TRIPOS>MOLECULE
*****
 24 27 0 0 0
SMALL
GASTEIGER

@<TRIPOS>ATOM
      1 C         144.7261  139.9868  164.7071 C.3     1  UNL1        0.0540
      2 C         143.4510  140.7460  164.4885 C.ar    1  UNL1        0.0805
      3 N         142.9183  141.2124  163.1661 N.ar    1  UNL1       -0.1685
      4 N         141.6228  141.9267  163.4142 N.ar    1  UNL1       -0.2167
      5 C         141.3549  141.9018  164.8898 C.ar    1  UNL1        0.0636
      6 C         140.1658  142.5013  165.5803 C.3     1  UNL1        0.0522
      7 C         142.4848  141.1721  165.5538 C.ar    1  UNL1        0.0289
      8 C         140.7486  142.5556  162.3699 C.ar    1  UNL1        0.1636
      9 N         140.0155  141.6923  161.3863 N.ar    1  UNL1       -0.2051
     10 C         139.1414  142.3210  160.3422 C.ar    1  UNL1        0.2000
     11 N         139.0003  143.8131  160.2814 N.ar    1  UNL1       -0.2271
     12 C         139.7333  144.6765  161.2649 C.ar    1  UNL1        0.0769
     13 C         140.6075  144.0477  162.3092 C.ar    1  UNL1        0.0444
     14 C         141.2027  145.1467  163.1386 C.3     1  UNL1        0.1002
     15 N         140.6963  146.4547  162.6069 N.3     1  UNL1       -0.2886
     16 C         139.7882  146.1641  161.4490 C.3     1  UNL1        0.1153
     17 H         141.4801  147.0289  162.2966 H       1  UNL1        0.1239
     18 C         142.6240  140.9138  167.0248 C.ar    1  UNL1        0.0025
     19 C         142.3555  139.5442  167.5746 C.ar    1  UNL1        0.0024
     20 C         142.4947  139.2860  169.0456 C.ar    1  UNL1        0.0296
     21 C         142.9024  140.3974  169.9669 C.ar    1  UNL1        0.1401
     22 F         143.0416  140.1392  171.4379 F       1  UNL1       -0.2042
     23 C         143.1709  141.7669  169.4171 C.ar    1  UNL1        0.0296
     24 C         143.0317  142.0251  167.9461 C.ar    1  UNL1        0.0024
@<TRIPOS>BOND
     1     1     2    1
     2     2     3   ar
     3     3     4   ar
     4     4     8    1
     5     8     9   ar
     6     9    10   ar
     7    10    11   ar
     8    11    12   ar
     9    12    13   ar
    10    13    14    1
    11    14    15    1
    12    15    16    1
    13     4     5   ar
    14     5     6    1
    15     5     7   ar
    16     7    18    1
    17    18    19   ar
    18    19    20   ar
    19    20    21   ar
    20    21    22    1
    21    21    23   ar
    22    23    24   ar
    23     7     2   ar
    24    24    18   ar
    25    13     8   ar
    26    16    12    1
    27    15    17    1
@<TRIPOS>MOLECULE
*****
 24 27 0 0 0
SMALL
GASTEIGER

@<TRIPOS>ATOM
      1 C         142.5534  138.3512  165.3883 C.3     1  UNL1        0.0540
      2 C         141.7926  139.5918  165.0251 C.ar    1  UNL1        0.0805
      3 N         141.3722  139.9954  163.6429 N.ar    1  UNL1       -0.1685
      4 N         140.6384  141.2997  163.7439 N.ar    1  UNL1       -0.2167
      5 C         140.6053  141.7023  165.1884 C.ar    1  UNL1        0.0636
      6 C         139.9703  142.9427  165.7437 C.3     1  UNL1        0.0522
      7 C         141.3186  140.6468  165.9802 C.ar    1  UNL1        0.0289
      8 C         140.0424  142.0669  162.6009 C.ar    1  UNL1        0.1636
      9 N         138.7436  141.6228  161.9958 N.ar    1  UNL1       -0.2051
     10 C         138.1475  142.3898  160.8530 C.ar    1  UNL1        0.2000
     11 N         138.8501  143.6010  160.3151 N.ar    1  UNL1       -0.2271
     12 C         140.1488  144.0452  160.9202 C.ar    1  UNL1        0.0769
     13 C         140.7449  143.2781  162.0631 C.ar    1  UNL1        0.0444
     14 C         142.0281  143.9500  162.4532 C.3     1  UNL1        0.1002
     15 N         142.2250  145.1323  161.5513 N.3     1  UNL1       -0.2886
     16 C         141.0635  145.1911  160.6039 C.3     1  UNL1        0.1153
     17 H         143.0939  145.0272  161.0276 H       1  UNL1        0.1239
     18 C         141.5222  140.6464  167.4664 C.ar    1  UNL1        0.0025
     19 C         142.7719  141.2334  168.0525 C.ar    1  UNL1        0.0024
     20 C         142.9754  141.2329  169.5385 C.ar    1  UNL1        0.0296
     21 C         141.9291  140.6454  170.4387 C.ar    1  UNL1        0.1401
     22 F         142.1326  140.6449  171.9247 F       1  UNL1       -0.2042
     23 C         140.6794  140.0583  169.8526 C.ar    1  UNL1        0.0296
     24 C         140.4759  140.0588  168.3665 C.ar    1  UNL1        0.0024
@<TRIPOS>BOND
     1     1     2    1
     2     2     3   ar
     3     3     4   ar
     4     4     8    1
     5     8     9   ar
     6     9    10   ar
     7    10    11   ar
     8    11    12   ar
     9    12    13   ar
    10    13    14    1
    11    14    15    1
    12    15    16    1
    13     4     5   ar
    14     5     6    1
    15     5     7   ar
    16     7    18    1
    17    18    19   ar
    18    19    20   ar
    19    20    21   ar
    20    21    22    1
    21    21    23   ar
    22    23    24   ar
    23     7     2   ar
    24    24    18   ar
    25    13     8   ar
    26    16    12    1
    27    15    17    1
@<TRIPOS>MOLECULE
*****
 24 27 0 0 0
SMALL
GASTEIGER

@<TRIPOS>ATOM
      1 C         138.4284  144.9640  165.6067 C.3     1  UNL1        0.0540
      2 C         138.8029  144.1396  164.4109 C.ar    1  UNL1        0.0805
      3 N         138.6424  144.5446  162.9755 N.ar    1  UNL1       -0.1685
      4 N         139.1440  143.4207  162.1180 N.ar    1  UNL1       -0.2167
      5 C         139.6145  142.3212  163.0233 C.ar    1  UNL1        0.0636
      6 C         140.1940  141.0079  162.5880 C.3     1  UNL1        0.0522
      7 C         139.4037  142.7655  164.4404 C.ar    1  UNL1        0.0289
      8 C         139.1704  143.4000  160.6183 C.ar    1  UNL1        0.1636
      9 N         138.2021  142.5386  159.8629 N.ar    1  UNL1       -0.2051
     10 C         138.2286  142.5178  158.3634 C.ar    1  UNL1        0.2000
     11 N         139.2232  143.3584  157.6191 N.ar    1  UNL1       -0.2271
     12 C         140.1915  144.2198  158.3743 C.ar    1  UNL1        0.0769
     13 C         140.1651  144.2406  159.8740 C.ar    1  UNL1        0.0444
     14 C         141.2348  145.1815  160.3434 C.3     1  UNL1        0.1002
     15 N         141.9223  145.7422  159.1339 N.3     1  UNL1       -0.2886
     16 C         141.2775  145.1479  157.9170 C.3     1  UNL1        0.1153
     17 H         142.9126  145.4989  159.1548 H       1  UNL1        0.1239
     18 C         139.7354  141.9745  165.6710 C.ar    1  UNL1        0.0025
     19 C         140.7655  142.4839  166.6350 C.ar    1  UNL1        0.0024
     20 C         141.0972  141.6929  167.8655 C.ar    1  UNL1        0.0296
     21 C         140.3988  140.3923  168.1320 C.ar    1  UNL1        0.1401
     22 F         140.7305  139.6013  169.3625 F       1  UNL1       -0.2042
     23 C         139.3688  139.8829  167.1679 C.ar    1  UNL1        0.0296
     24 C         139.0371  140.6740  165.9374 C.ar    1  UNL1        0.0024
@<TRIPOS>BOND
     1     1     2    1
     2     2     3   ar
     3     3     4   ar
     4     4     8    1
     5     8     9   ar
     6     9    10   ar
     7    10    11   ar
     8    11    12   ar
     9    12    13   ar
    10    13    14    1
    11    14    15    1
    12    15    16    1
    13     4     5   ar
    14     5     6    1
    15     5     7   ar
    16     7    18    1
    17    18    19   ar
    18    19    20   ar
    19    20    21   ar
    20    21    22    1
    21    21    23   ar
    22    23    24   ar
    23     7     2   ar
    24    24    18   ar
    25    13     8   ar
    26    16    12    1
    27    15    17    1
@<TRIPOS>MOLECULE
*****
 24 27 0 0 0
SMALL
GASTEIGER

@<TRIPOS>ATOM
      1 C         138.1535  139.3214  165.8491 C.3     1  UNL1        0.0540
      2 C         139.5404  139.5736  165.3366 C.ar    1  UNL1        0.0805
      3 N         140.0822  139.1373  164.0076 N.ar    1  UNL1       -0.1685
      4 N         141.5057  139.6004  163.9127 N.ar    1  UNL1       -0.2167
      5 C         141.8438  140.3229  165.1830 C.ar    1  UNL1        0.0636
      6 C         143.1646  140.9516  165.5150 C.3     1  UNL1        0.0522
      7 C         140.6292  140.3063  166.0630 C.ar    1  UNL1        0.0289
      8 C         142.4292  139.3798  162.7514 C.ar    1  UNL1        0.1636
      9 N         143.0038  138.0174  162.4984 N.ar    1  UNL1       -0.2051
     10 C         143.9272  137.7968  161.3372 C.ar    1  UNL1        0.2000
     11 N         144.2761  138.9383  160.4288 N.ar    1  UNL1       -0.2271
     12 C         143.7015  140.3006  160.6818 C.ar    1  UNL1        0.0769
     13 C         142.7781  140.5213  161.8431 C.ar    1  UNL1        0.0444
     14 C         142.3687  141.9644  161.8421 C.3     1  UNL1        0.1002
     15 N         143.0392  142.6356  160.6802 N.3     1  UNL1       -0.2886
     16 C         143.8629  141.6073  159.9631 C.3     1  UNL1        0.1153
     17 H         143.6404  143.3885  161.0152 H       1  UNL1        0.1239
     18 C         140.5222  140.9155  167.4296 C.ar    1  UNL1        0.0025
     19 C         140.4955  142.4071  167.5858 C.ar    1  UNL1        0.0024
     20 C         140.3885  143.0163  168.9523 C.ar    1  UNL1        0.0296
     21 C         140.3081  142.1338  170.1627 C.ar    1  UNL1        0.1401
     22 F         140.2011  142.7430  171.5292 F       1  UNL1       -0.2042
     23 C         140.3348  140.6422  170.0064 C.ar    1  UNL1        0.0296
     24 C         140.4418  140.0331  168.6398 C.ar    1  UNL1        0.0024
@<TRIPOS>BOND
     1     1     2    1
     2     2     3   ar
     3     3     4   ar
     4     4     8    1
     5     8     9   ar
     6     9    10   ar
     7    10    11   ar
     8    11    12   ar
     9    12    13   ar
    10    13    14    1
    11    14    15    1
    12    15    16    1
    13     4     5   ar
    14     5     6    1
    15     5     7   ar
    16     7    18    1
    17    18    19   ar
    18    19    20   ar
    19    20    21   ar
    20    21    22    1
    21    21    23   ar
    22    23    24   ar
    23     7     2   ar
    24    24    18   ar
    25    13     8   ar
    26    16    12    1
    27    15    17    1
@<TRIPOS>MOLECULE
*****
 24 27 0 0 0
SMALL
GASTEIGER

@<TRIPOS>ATOM
      1 C         138.8691  139.5808  167.9289 C.3     1  UNL1        0.0540
      2 C         139.2600  140.3195  166.6833 C.ar    1  UNL1        0.0805
      3 N         138.7106  140.0815  165.3080 N.ar    1  UNL1       -0.1685
      4 N         139.3801  141.0408  164.3691 N.ar    1  UNL1       -0.2167
      5 C         140.3432  141.8716  165.1641 C.ar    1  UNL1        0.0636
      6 C         141.2257  142.9576  164.6237 C.3     1  UNL1        0.0522
      7 C         140.2691  141.4258  166.5944 C.ar    1  UNL1        0.0289
      8 C         139.1302  141.1501  162.8941 C.ar    1  UNL1        0.1636
      9 N         138.7171  142.4635  162.2986 N.ar    1  UNL1       -0.2051
     10 C         138.4673  142.5729  160.8237 C.ar    1  UNL1        0.2000
     11 N         138.6305  141.3690  159.9441 N.ar    1  UNL1       -0.2271
     12 C         139.0436  140.0556  160.5394 C.ar    1  UNL1        0.0769
     13 C         139.2935  139.9462  162.0144 C.ar    1  UNL1        0.0444
     14 C         139.6872  138.5302  162.3141 C.3     1  UNL1        0.1002
     15 N         139.6806  137.7644  161.0243 N.3     1  UNL1       -0.2886
     16 C         139.2829  138.7072  159.9274 C.3     1  UNL1        0.1153
     17 H         139.0111  136.9970  161.0808 H       1  UNL1        0.1239
     18 C         141.0643  141.9877  167.7354 C.ar    1  UNL1        0.0025
     19 C         142.5044  141.6045  167.9065 C.ar    1  UNL1        0.0024
     20 C         143.2996  142.1664  169.0474 C.ar    1  UNL1        0.0296
     21 C         142.6547  143.1117  170.0174 C.ar    1  UNL1        0.1401
     22 F         143.4499  143.6736  171.1583 F       1  UNL1       -0.2042
     23 C         141.2147  143.4949  169.8462 C.ar    1  UNL1        0.0296
     24 C         140.4195  142.9329  168.7052 C.ar    1  UNL1        0.0024
@<TRIPOS>BOND
     1     1     2    1
     2     2     3   ar
     3     3     4   ar
     4     4     8    1
     5     8     9   ar
     6     9    10   ar
     7    10    11   ar
     8    11    12   ar
     9    12    13   ar
    10    13    14    1
    11    14    15    1
    12    15    16    1
    13     4     5   ar
    14     5     6    1
    15     5     7   ar
    16     7    18    1
    17    18    19   ar
    18    19    20   ar
    19    20    21   ar
    20    21    22    1
    21    21    23   ar
    22    23    24   ar
    23     7     2   ar
    24    24    18   ar
    25    13     8   ar
    26    16    12    1
    27    15    17    1
@<TRIPOS>MOLECULE
*****
 24 27 0 0 0
SMALL
GASTEIGER

@<TRIPOS>ATOM
      1 C         140.0916  137.9259  164.6700 C.3     1  UNL1        0.0540
      2 C         140.6339  139.2928  164.3742 C.ar    1  UNL1        0.0805
      3 N         140.9173  139.8531  163.0119 N.ar    1  UNL1       -0.1685
      4 N         141.4465  141.2460  163.1845 N.ar    1  UNL1       -0.2167
      5 C         141.4902  141.5466  164.6534 C.ar    1  UNL1        0.0636
      6 C         141.9545  142.8292  165.2774 C.3     1  UNL1        0.0522
      7 C         140.9879  140.3395  165.3886 C.ar    1  UNL1        0.0289
      8 C         141.8596  142.1752  162.0817 C.ar    1  UNL1        0.1636
      9 N         143.1385  141.9327  161.3362 N.ar    1  UNL1       -0.2051
     10 C         143.5516  142.8618  160.2336 C.ar    1  UNL1        0.2000
     11 N         142.6859  144.0335  159.8763 N.ar    1  UNL1       -0.2271
     12 C         141.4071  144.2760  160.6217 C.ar    1  UNL1        0.0769
     13 C         140.9939  143.3469  161.7245 C.ar    1  UNL1        0.0444
     14 C         139.6887  143.8363  162.2784 C.3     1  UNL1        0.1002
     15 N         139.2952  145.0679  161.5180 N.3     1  UNL1       -0.2886
     16 C         140.3572  145.3397  160.4941 C.3     1  UNL1        0.1153
     17 H         139.2194  145.8596  162.1567 H       1  UNL1        0.1239
     18 C         140.8619  140.2031  166.8771 C.ar    1  UNL1        0.0025
     19 C         139.5307  140.4040  167.5387 C.ar    1  UNL1        0.0024
     20 C         139.4047  140.2675  169.0271 C.ar    1  UNL1        0.0296
     21 C         140.6099  139.9302  169.8541 C.ar    1  UNL1        0.1401
     22 F         140.4839  139.7937  171.3424 F       1  UNL1       -0.2042
     23 C         141.9411  139.7293  169.1925 C.ar    1  UNL1        0.0296
     24 C         142.0670  139.8657  167.7040 C.ar    1  UNL1        0.0024
@<TRIPOS>BOND
     1     1     2    1
     2     2     3   ar
     3     3     4   ar
     4     4     8    1
     5     8     9   ar
     6     9    10   ar
     7    10    11   ar
     8    11    12   ar
     9    12    13   ar
    10    13    14    1
    11    14    15    1
    12    15    16    1
    13     4     5   ar
    14     5     6    1
    15     5     7   ar
    16     7    18    1
    17    18    19   ar
    18    19    20   ar
    19    20    21   ar
    20    21    22    1
    21    21    23   ar
    22    23    24   ar
    23     7     2   ar
    24    24    18   ar
    25    13     8   ar
    26    16    12    1
    27    15    17    1
@<TRIPOS>MOLECULE
*****
 24 27 0 0 0
SMALL
GASTEIGER

@<TRIPOS>ATOM
      1 C         145.5047  141.7947  164.0800 C.3     1  UNL1        0.0540
      2 C         144.1062  142.2879  163.8546 C.ar    1  UNL1        0.0805
      3 N         143.6635  143.2140  162.7608 N.ar    1  UNL1       -0.1685
      4 N         142.1885  143.4401  162.9137 N.ar    1  UNL1       -0.2167
      5 C         141.7196  142.6538  164.1019 C.ar    1  UNL1        0.0636
      6 C         140.3126  142.5906  164.6179 C.3     1  UNL1        0.0522
      7 C         142.9049  141.9417  164.6834 C.ar    1  UNL1        0.0289
      8 C         141.3325  144.3013  162.0329 C.ar    1  UNL1        0.1636
      9 N         140.6500  145.5103  162.6010 N.ar    1  UNL1       -0.2051
     10 C         139.7941  146.3715  161.7204 C.ar    1  UNL1        0.2000
     11 N         139.6206  146.0239  160.2716 N.ar    1  UNL1       -0.2271
     12 C         140.3031  144.8150  159.7035 C.ar    1  UNL1        0.0769
     13 C         141.1591  143.9537  160.5841 C.ar    1  UNL1        0.0444
     14 C         141.7031  142.8329  159.7488 C.3     1  UNL1        0.1002
     15 N         141.1833  143.0015  158.3519 N.3     1  UNL1       -0.2886
     16 C         140.3181  144.2265  158.3238 C.3     1  UNL1        0.1153
     17 H         140.6345  142.1839  158.0857 H       1  UNL1        0.1239
     18 C         142.8911  141.0414  165.8831 C.ar    1  UNL1        0.0025
     19 C         143.0994  139.5654  165.7158 C.ar    1  UNL1        0.0024
     20 C         143.0856  138.6652  166.9155 C.ar    1  UNL1        0.0296
     21 C         142.8635  139.2410  168.2827 C.ar    1  UNL1        0.1401
     22 F         142.8497  138.3408  169.4824 F       1  UNL1       -0.2042
     23 C         142.6552  140.7170  168.4501 C.ar    1  UNL1        0.0296
     24 C         142.6690  141.6172  167.2503 C.ar    1  UNL1        0.0024
@<TRIPOS>BOND
     1     1     2    1
     2     2     3   ar
     3     3     4   ar
     4     4     8    1
     5     8     9   ar
     6     9    10   ar
     7    10    11   ar
     8    11    12   ar
     9    12    13   ar
    10    13    14    1
    11    14    15    1
    12    15    16    1
    13     4     5   ar
    14     5     6    1
    15     5     7   ar
    16     7    18    1
    17    18    19   ar
    18    19    20   ar
    19    20    21   ar
    20    21    22    1
    21    21    23   ar
    22    23    24   ar
    23     7     2   ar
    24    24    18   ar
    25    13     8   ar
    26    16    12    1
    27    15    17    1
@<TRIPOS>MOLECULE
*****
 24 27 0 0 0
SMALL
GASTEIGER

@<TRIPOS>ATOM
      1 C         144.9797  140.3491  164.3416 C.3     1  UNL1        0.0540
      2 C         143.7550  141.1791  164.0943 C.ar    1  UNL1        0.0805
      3 N         143.3183  141.7339  162.7709 N.ar    1  UNL1       -0.1685
      4 N         142.0453  142.4977  162.9858 N.ar    1  UNL1       -0.2167
      5 C         141.6953  142.4150  164.4420 C.ar    1  UNL1        0.0636
      6 C         140.4987  143.0379  165.0980 C.3     1  UNL1        0.0522
      7 C         142.7519  141.6001  165.1271 C.ar    1  UNL1        0.0289
      8 C         141.2601  143.2178  161.9298 C.ar    1  UNL1        0.1636
      9 N         141.4842  144.6826  161.6967 N.ar    1  UNL1       -0.2051
     10 C         140.6992  145.4027  160.6408 C.ar    1  UNL1        0.2000
     11 N         139.6899  144.6582  159.8180 N.ar    1  UNL1       -0.2271
     12 C         139.4658  143.1935  160.0511 C.ar    1  UNL1        0.0769
     13 C         140.2509  142.4733  161.1070 C.ar    1  UNL1        0.0444
     14 C         139.8163  141.0376  161.1095 C.3     1  UNL1        0.1002
     15 N         138.7625  140.8706  160.0551 N.3     1  UNL1       -0.2886
     16 C         138.5459  142.2029  159.4010 C.3     1  UNL1        0.1153
     17 H         137.8937  140.5492  160.4820 H       1  UNL1        0.1239
     18 C         142.7974  141.2650  166.5885 C.ar    1  UNL1        0.0025
     19 C         143.1590  142.3220  167.5896 C.ar    1  UNL1        0.0024
     20 C         143.2045  141.9868  169.0508 C.ar    1  UNL1        0.0296
     21 C         142.8885  140.5946  169.5113 C.ar    1  UNL1        0.1401
     22 F         142.9340  140.2594  170.9726 F       1  UNL1       -0.2042
     23 C         142.5269  139.5376  168.5103 C.ar    1  UNL1        0.0296
     24 C         142.4814  139.8728  167.0489 C.ar    1  UNL1        0.0024
@<TRIPOS>BOND
     1     1     2    1
     2     2     3   ar
     3     3     4   ar
     4     4     8    1
     5     8     9   ar
     6     9    10   ar
     7    10    11   ar
     8    11    12   ar
     9    12    13   ar
    10    13    14    1
    11    14    15    1
    12    15    16    1
    13     4     5   ar
    14     5     6    1
    15     5     7   ar
    16     7    18    1
    17    18    19   ar
    18    19    20   ar
    19    20    21   ar
    20    21    22    1
    21    21    23   ar
    22    23    24   ar
    23     7     2   ar
    24    24    18   ar
    25    13     8   ar
    26    16    12    1
    27    15    17    1
