@<TRIPOS>MOLECULE
*****
 49 54 0 0 0
SMALL
GASTEIGER

@<TRIPOS>ATOM
      1 C         143.5831  138.3953  156.0271 C.3     1  UNL1        0.1318
      2 C         143.0745  137.0772  155.5232 C.3     1  UNL1        0.1741
      3 C         142.7031  137.8657  154.3024 C.3     1  UNL1        0.0473
      4 C         142.4882  135.9240  154.7642 C.3     1  UNL1        0.1446
      5 N         142.6036  134.6984  155.6211 N.am    1  UNL1       -0.2060
      6 C         143.2612  135.0942  156.9099 C.2     1  UNL1        0.4097
      7 O         143.5730  134.1801  158.0577 O.2     1  UNL1       -0.2258
      8 O         143.5522  136.5644  156.8495 O.3     1  UNL1       -0.4381
      9 C         142.1424  133.3191  155.2539 C.ar    1  UNL1        0.1400
     10 C         141.2920  133.1122  154.0357 C.ar    1  UNL1        0.0348
     11 C         140.8307  131.7329  153.6684 C.ar    1  UNL1        0.0045
     12 C         141.2199  130.5606  154.5194 C.ar    1  UNL1        0.0222
     13 C         142.0703  130.7675  155.7376 C.ar    1  UNL1        0.1004
     14 N         142.5316  132.1467  156.1049 N.ar    1  UNL1       -0.2287
     15 C         140.7586  129.1813  154.1521 C.ar    1  UNL1        0.0358
     16 C         139.6774  128.5147  154.9499 C.ar    1  UNL1        0.0031
     17 C         139.2162  127.1355  154.5826 C.ar    1  UNL1        0.0002
     18 C         139.8362  126.4228  153.4174 C.ar    1  UNL1        0.0031
     19 C         140.9174  127.0893  152.6195 C.ar    1  UNL1        0.0372
     20 C         141.3786  128.4686  152.9868 C.ar    1  UNL1        0.1468
     21 O         142.4598  129.1352  152.1889 O.3     1  UNL1       -0.4045
     22 C         143.8081  129.3706  152.8026 C.3     1  UNL1        0.5753
     23 F         145.1564  129.6061  153.4164 F       1  UNL1       -0.1328
     24 F         143.8485  130.7387  152.1889 F       1  UNL1       -0.1328
     25 F         143.7677  128.0025  153.4163 F       1  UNL1       -0.1328
     26 C         142.2094  139.4620  157.9572 C.2     1  UNL1        0.2459
     27 O         141.1232  139.8197  156.9866 O.2     1  UNL1       -0.2701
     28 N         143.4394  138.7498  157.4775 N.am    1  UNL1       -0.2976
     29 H         144.1523  138.5151  158.1146 H       1  UNL1        0.1499
     30 C         141.7783  140.5255  162.3085 C.ar    1  UNL1        0.0536
     31 C         143.1186  140.1322  161.7618 C.ar    1  UNL1        0.0048
     32 C         143.2622  139.7777  160.3114 C.ar    1  UNL1        0.0047
     33 C         142.0657  139.8165  159.4076 C.ar    1  UNL1        0.0534
     34 C         140.7254  140.2098  159.9543 C.ar    1  UNL1        0.0047
     35 C         140.5817  140.5643  161.4048 C.ar    1  UNL1        0.0048
     36 C         142.0064  140.4711  167.6263 C.ar    1  UNL1        0.0143
     37 C         141.5232  141.4088  168.6927 C.ar    1  UNL1        0.0091
     38 C         140.8057  142.6702  168.3133 C.ar    1  UNL1        0.0698
     39 C         140.5713  142.9939  166.8674 C.ar    1  UNL1        0.0326
     40 C         141.0546  142.0562  165.8011 C.ar    1  UNL1        0.1192
     41 N         140.9695  142.1089  164.3044 N.ar    1  UNL1       -0.2082
     42 C         141.6345  140.8800  163.7589 C.ar    1  UNL1        0.2296
     43 O         142.1306  140.0679  164.9184 O.2     1  UNL1       -0.4349
     44 C         141.7721  140.7948  166.1805 C.ar    1  UNL1        0.1607
     45 C         143.4219  138.3986  166.9545 C.3     1  UNL1        0.0048
     46 C         142.7240  139.2097  168.0058 C.3     1  UNL1        0.0254
     47 C         142.7436  138.7593  169.4365 C.3     1  UNL1        0.0048
     48 C         140.3224  143.6079  169.3797 C.1     1  UNL1        0.1005
     49 N         139.8391  144.5456  170.4461 N.1     1  UNL1       -0.1908
@<TRIPOS>BOND
     1    45    46    1
     2    46    47    1
     3    46    36    1
     4    36    37   ar
     5    37    38   ar
     6    38    48    1
     7    48    49    3
     8    38    39   ar
     9    39    40   ar
    10    40    41   ar
    11    41    42   ar
    12    42    30    1
    13    30    31   ar
    14    31    32   ar
    15    32    33   ar
    16    33    26    1
    17    26    27    2
    18    26    28   am
    19    28     1    1
    20     1     2    1
    21     2     3    1
    22     2     4    1
    23     4     5    1
    24     5     9    1
    25     9    10   ar
    26    10    11   ar
    27    11    12   ar
    28    12    15    1
    29    15    16   ar
    30    16    17   ar
    31    17    18   ar
    32    18    19   ar
    33    19    20   ar
    34    20    21    1
    35    21    22    1
    36    22    23    1
    37    22    24    1
    38    22    25    1
    39    12    13   ar
    40    13    14   ar
    41     5     6   am
    42     6     7    2
    43     6     8    1
    44    33    34   ar
    45    34    35   ar
    46    42    43   ar
    47    43    44   ar
    48    44    36   ar
    49    44    40   ar
    50    35    30   ar
    51     8     2    1
    52    14     9   ar
    53    20    15   ar
    54    28    29    1
@<TRIPOS>MOLECULE
*****
 49 54 0 0 0
SMALL
GASTEIGER

@<TRIPOS>ATOM
      1 C         142.9908  138.5227  156.4842 C.3     1  UNL1        0.1318
      2 C         143.0628  137.1861  155.8072 C.3     1  UNL1        0.1741
      3 C         142.8451  137.9841  154.5559 C.3     1  UNL1        0.0473
      4 C         143.0892  136.0163  154.8686 C.3     1  UNL1        0.1446
      5 N         143.3082  134.7748  155.6813 N.am    1  UNL1       -0.2060
      6 C         143.4171  135.1772  157.1222 C.2     1  UNL1        0.4097
      7 O         143.6388  134.2518  158.2818 O.2     1  UNL1       -0.2258
      8 O         143.2654  136.6675  157.2001 O.3     1  UNL1       -0.4381
      9 C         143.4019  133.3763  155.1471 C.ar    1  UNL1        0.1400
     10 C         144.2127  132.3472  155.8776 C.ar    1  UNL1        0.0348
     11 C         144.3065  130.9487  155.3434 C.ar    1  UNL1        0.0045
     12 C         143.5894  130.5792  154.0788 C.ar    1  UNL1        0.0222
     13 C         142.7786  131.6083  153.3483 C.ar    1  UNL1        0.1004
     14 N         142.6849  133.0069  153.8824 N.ar    1  UNL1       -0.2287
     15 C         143.6832  129.1807  153.5447 C.ar    1  UNL1        0.0358
     16 C         144.9220  128.7334  152.8269 C.ar    1  UNL1        0.0031
     17 C         145.0157  127.3349  152.2928 C.ar    1  UNL1        0.0002
     18 C         143.8706  126.3836  152.4764 C.ar    1  UNL1        0.0031
     19 C         142.6318  126.8308  153.1941 C.ar    1  UNL1        0.0372
     20 C         142.5380  128.2293  153.7283 C.ar    1  UNL1        0.1468
     21 O         141.2991  128.6766  154.4460 O.3     1  UNL1       -0.4045
     22 C         140.8546  127.9651  155.6894 C.3     1  UNL1        0.5753
     23 F         140.4100  127.2535  156.9328 F       1  UNL1       -0.1328
     24 F         142.1697  128.2786  156.3391 F       1  UNL1       -0.1328
     25 F         139.5394  127.6515  155.0398 F       1  UNL1       -0.1328
     26 C         143.2230  139.5022  158.8793 C.2     1  UNL1        0.2459
     27 O         144.4257  140.2850  158.4426 O.2     1  UNL1       -0.2701
     28 N         142.5056  138.6210  157.9001 N.am    1  UNL1       -0.2976
     29 H         141.7162  138.1073  158.1868 H       1  UNL1        0.1499
     30 C         141.7674  139.7973  163.1272 C.ar    1  UNL1        0.0536
     31 C         143.1658  139.3344  162.8440 C.ar    1  UNL1        0.0048
     32 C         143.6510  139.2361  161.4280 C.ar    1  UNL1        0.0047
     33 C         142.7378  139.6005  160.2953 C.ar    1  UNL1        0.0534
     34 C         141.3394  140.0634  160.5784 C.ar    1  UNL1        0.0047
     35 C         140.8542  140.1617  161.9944 C.ar    1  UNL1        0.0048
     36 C         141.3996  140.7999  168.3420 C.ar    1  UNL1        0.0143
     37 C         140.3373  140.5513  169.3713 C.ar    1  UNL1        0.0091
     38 C         139.0531  139.8836  168.9777 C.ar    1  UNL1        0.0698
     39 C         138.8312  139.4645  167.5546 C.ar    1  UNL1        0.0326
     40 C         139.8935  139.7132  166.5252 C.ar    1  UNL1        0.1192
     41 N         139.9581  139.4133  165.0569 N.ar    1  UNL1       -0.2082
     42 C         141.2822  139.8956  164.5431 C.ar    1  UNL1        0.2296
     43 O         142.0360  140.4936  165.6939 O.2     1  UNL1       -0.4349
     44 C         141.1777  140.3809  166.9189 C.ar    1  UNL1        0.1607
     45 C         143.3458  141.1136  170.0343 C.3     1  UNL1        0.0048
     46 C         142.6838  141.4676  168.7357 C.3     1  UNL1        0.0254
     47 C         143.3061  142.4894  167.8307 C.3     1  UNL1        0.0048
     48 C         137.9908  139.6350  170.0072 C.1     1  UNL1        0.1005
     49 N         136.9285  139.3863  171.0365 N.1     1  UNL1       -0.1908
@<TRIPOS>BOND
     1    45    46    1
     2    46    47    1
     3    46    36    1
     4    36    37   ar
     5    37    38   ar
     6    38    48    1
     7    48    49    3
     8    38    39   ar
     9    39    40   ar
    10    40    41   ar
    11    41    42   ar
    12    42    30    1
    13    30    31   ar
    14    31    32   ar
    15    32    33   ar
    16    33    26    1
    17    26    27    2
    18    26    28   am
    19    28     1    1
    20     1     2    1
    21     2     3    1
    22     2     4    1
    23     4     5    1
    24     5     9    1
    25     9    10   ar
    26    10    11   ar
    27    11    12   ar
    28    12    15    1
    29    15    16   ar
    30    16    17   ar
    31    17    18   ar
    32    18    19   ar
    33    19    20   ar
    34    20    21    1
    35    21    22    1
    36    22    23    1
    37    22    24    1
    38    22    25    1
    39    12    13   ar
    40    13    14   ar
    41     5     6   am
    42     6     7    2
    43     6     8    1
    44    33    34   ar
    45    34    35   ar
    46    42    43   ar
    47    43    44   ar
    48    44    36   ar
    49    44    40   ar
    50    35    30   ar
    51     8     2    1
    52    14     9   ar
    53    20    15   ar
    54    28    29    1
@<TRIPOS>MOLECULE
*****
 49 54 0 0 0
SMALL
GASTEIGER

@<TRIPOS>ATOM
      1 C         139.9190  138.3899  156.0502 C.3     1  UNL1        0.1318
      2 C         140.2431  137.0513  155.4560 C.3     1  UNL1        0.1741
      3 C         139.1046  137.3622  154.5302 C.3     1  UNL1        0.0473
      4 C         140.3292  135.7776  154.6683 C.3     1  UNL1        0.1446
      5 N         141.4531  134.9594  155.2315 N.am    1  UNL1       -0.2060
      6 C         142.0616  135.7273  156.3673 C.2     1  UNL1        0.4097
      7 O         143.2155  135.2807  157.2154 O.2     1  UNL1       -0.2258
      8 O         141.3139  137.0201  156.5061 O.3     1  UNL1       -0.4381
      9 C         141.8916  133.6101  154.7445 C.ar    1  UNL1        0.1400
     10 C         142.0233  132.4704  155.7108 C.ar    1  UNL1        0.0348
     11 C         142.4618  131.1211  155.2239 C.ar    1  UNL1        0.0045
     12 C         142.7686  130.9115  153.7707 C.ar    1  UNL1        0.0222
     13 C         142.6369  132.0512  152.8044 C.ar    1  UNL1        0.1004
     14 N         142.1984  133.4005  153.2912 N.ar    1  UNL1       -0.2287
     15 C         143.2070  129.5622  153.2838 C.ar    1  UNL1        0.0358
     16 C         144.6665  129.2184  153.2400 C.ar    1  UNL1        0.0031
     17 C         145.1048  127.8691  152.7532 C.ar    1  UNL1        0.0002
     18 C         144.0839  126.8635  152.3100 C.ar    1  UNL1        0.0031
     19 C         142.6245  127.2072  152.3538 C.ar    1  UNL1        0.0372
     20 C         142.1860  128.5565  152.8407 C.ar    1  UNL1        0.1468
     21 O         140.7266  128.9002  152.8844 O.3     1  UNL1       -0.4045
     22 C         139.7887  128.0841  153.7237 C.3     1  UNL1        0.5753
     23 F         138.8508  127.2681  154.5630 F       1  UNL1       -0.1328
     24 F         140.6380  128.3498  154.9312 F       1  UNL1       -0.1328
     25 F         138.9394  127.8185  152.5162 F       1  UNL1       -0.1328
     26 C         139.3753  139.4415  158.3629 C.2     1  UNL1        0.2459
     27 O         138.0328  139.8726  157.8514 O.2     1  UNL1       -0.2701
     28 N         140.3184  138.7002  157.4624 N.am    1  UNL1       -0.2976
     29 H         141.1996  138.4173  157.7982 H       1  UNL1        0.1499
     30 C         140.5736  140.3725  162.5994 C.ar    1  UNL1        0.0536
     31 C         141.1245  141.1884  161.4676 C.ar    1  UNL1        0.0048
     32 C         140.7250  140.8780  160.0555 C.ar    1  UNL1        0.0047
     33 C         139.7747  139.7518  159.7751 C.ar    1  UNL1        0.0534
     34 C         139.2239  138.9359  160.9068 C.ar    1  UNL1        0.0047
     35 C         139.6233  139.2463  162.3190 C.ar    1  UNL1        0.0048
     36 C         140.6691  140.7933  167.9049 C.ar    1  UNL1        0.0143
     37 C         141.6472  141.3799  168.8792 C.ar    1  UNL1        0.0091
     38 C         142.9115  142.0155  168.3819 C.ar    1  UNL1        0.0698
     39 C         143.1979  142.0646  166.9103 C.ar    1  UNL1        0.0326
     40 C         142.2198  141.4781  165.9360 C.ar    1  UNL1        0.1192
     41 N         142.2307  141.3794  164.4393 N.ar    1  UNL1       -0.2082
     42 C         140.9731  140.6828  164.0115 C.ar    1  UNL1        0.2296
     43 O         140.1849  140.3509  165.2439 O.2     1  UNL1       -0.4349
     44 C         140.9554  140.8424  166.4333 C.ar    1  UNL1        0.1607
     45 C         138.9636  140.3741  169.8194 C.3     1  UNL1        0.0048
     46 C         139.4048  140.1577  168.4022 C.3     1  UNL1        0.0254
     47 C         138.5815  139.3056  167.4822 C.3     1  UNL1        0.0048
     48 C         143.8897  142.6021  169.3563 C.1     1  UNL1        0.1005
     49 N         144.8678  143.1886  170.3306 N.1     1  UNL1       -0.1908
@<TRIPOS>BOND
     1    45    46    1
     2    46    47    1
     3    46    36    1
     4    36    37   ar
     5    37    38   ar
     6    38    48    1
     7    48    49    3
     8    38    39   ar
     9    39    40   ar
    10    40    41   ar
    11    41    42   ar
    12    42    30    1
    13    30    31   ar
    14    31    32   ar
    15    32    33   ar
    16    33    26    1
    17    26    27    2
    18    26    28   am
    19    28     1    1
    20     1     2    1
    21     2     3    1
    22     2     4    1
    23     4     5    1
    24     5     9    1
    25     9    10   ar
    26    10    11   ar
    27    11    12   ar
    28    12    15    1
    29    15    16   ar
    30    16    17   ar
    31    17    18   ar
    32    18    19   ar
    33    19    20   ar
    34    20    21    1
    35    21    22    1
    36    22    23    1
    37    22    24    1
    38    22    25    1
    39    12    13   ar
    40    13    14   ar
    41     5     6   am
    42     6     7    2
    43     6     8    1
    44    33    34   ar
    45    34    35   ar
    46    42    43   ar
    47    43    44   ar
    48    44    36   ar
    49    44    40   ar
    50    35    30   ar
    51     8     2    1
    52    14     9   ar
    53    20    15   ar
    54    28    29    1
@<TRIPOS>MOLECULE
*****
 49 54 0 0 0
SMALL
GASTEIGER

@<TRIPOS>ATOM
      1 C         140.0791  138.3672  156.0182 C.3     1  UNL1        0.1318
      2 C         140.4027  136.9713  155.5746 C.3     1  UNL1        0.1741
      3 C         139.2650  137.1796  154.6194 C.3     1  UNL1        0.0473
      4 C         140.4884  135.6190  154.9313 C.3     1  UNL1        0.1446
      5 N         141.6113  134.8667  155.5816 N.am    1  UNL1       -0.2060
      6 C         142.2197  135.7541  156.6268 C.2     1  UNL1        0.4097
      7 O         143.3727  135.4024  157.5196 O.2     1  UNL1       -0.2258
      8 O         141.4727  137.0548  156.6225 O.3     1  UNL1       -0.4381
      9 C         142.0492  133.4719  155.2457 C.ar    1  UNL1        0.1400
     10 C         142.3178  133.0932  153.8193 C.ar    1  UNL1        0.0348
     11 C         142.7557  131.6984  153.4833 C.ar    1  UNL1        0.0045
     12 C         142.9249  130.6824  154.5737 C.ar    1  UNL1        0.0222
     13 C         142.6563  131.0610  156.0001 C.ar    1  UNL1        0.1004
     14 N         142.2184  132.4558  156.3361 N.ar    1  UNL1       -0.2287
     15 C         143.3628  129.2876  154.2377 C.ar    1  UNL1        0.0358
     16 C         144.8242  128.9572  154.1650 C.ar    1  UNL1        0.0031
     17 C         145.2619  127.5624  153.8291 C.ar    1  UNL1        0.0002
     18 C         144.2384  126.4980  153.5657 C.ar    1  UNL1        0.0031
     19 C         142.7771  126.8283  153.6383 C.ar    1  UNL1        0.0372
     20 C         142.3393  128.2231  153.9743 C.ar    1  UNL1        0.1468
     21 O         140.8779  128.5534  154.0470 O.3     1  UNL1       -0.4045
     22 C         140.0021  127.8641  155.0509 C.3     1  UNL1        0.5753
     23 F         139.1264  127.1749  156.0549 F       1  UNL1       -0.1328
     24 F         139.0216  127.5300  153.9662 F       1  UNL1       -0.1328
     25 F         140.9827  128.1983  156.1357 F       1  UNL1       -0.1328
     26 C         141.0092  139.7683  157.9986 C.2     1  UNL1        0.2459
     27 O         141.9329  140.4843  157.0583 O.2     1  UNL1       -0.2701
     28 N         140.0823  138.7097  157.4786 N.am    1  UNL1       -0.2976
     29 H         139.4761  138.2398  158.0958 H       1  UNL1        0.1499
     30 C         141.0188  140.7959  162.3797 C.ar    1  UNL1        0.0536
     31 C         140.2789  139.5844  161.8952 C.ar    1  UNL1        0.0048
     32 C         140.2758  139.2419  160.4348 C.ar    1  UNL1        0.0047
     33 C         141.0124  140.1108  159.4590 C.ar    1  UNL1        0.0534
     34 C         141.7523  141.3224  159.9435 C.ar    1  UNL1        0.0047
     35 C         141.7554  141.6649  161.4039 C.ar    1  UNL1        0.0048
     36 C         141.7951  140.7059  167.6450 C.ar    1  UNL1        0.0143
     37 C         141.4152  141.6307  168.7632 C.ar    1  UNL1        0.0091
     38 C         140.6499  142.8870  168.4702 C.ar    1  UNL1        0.0698
     39 C         140.2644  143.2186  167.0590 C.ar    1  UNL1        0.0326
     40 C         140.6443  142.2938  165.9408 C.ar    1  UNL1        0.1192
     41 N         140.4047  142.3562  164.4614 N.ar    1  UNL1       -0.2082
     42 C         141.0220  141.1385  163.8401 C.ar    1  UNL1        0.2296
     43 O         141.6431  140.3234  164.9355 O.2     1  UNL1       -0.4349
     44 C         141.4097  141.0374  166.2338 C.ar    1  UNL1        0.1607
     45 C         142.5664  138.8815  169.3263 C.3     1  UNL1        0.0048
     46 C         142.5604  139.4495  167.9381 C.3     1  UNL1        0.0254
     47 C         143.3198  138.7612  166.8428 C.3     1  UNL1        0.0048
     48 C         140.2701  143.8119  169.5885 C.1     1  UNL1        0.1005
     49 N         139.8902  144.7367  170.7067 N.1     1  UNL1       -0.1908
@<TRIPOS>BOND
     1    45    46    1
     2    46    47    1
     3    46    36    1
     4    36    37   ar
     5    37    38   ar
     6    38    48    1
     7    48    49    3
     8    38    39   ar
     9    39    40   ar
    10    40    41   ar
    11    41    42   ar
    12    42    30    1
    13    30    31   ar
    14    31    32   ar
    15    32    33   ar
    16    33    26    1
    17    26    27    2
    18    26    28   am
    19    28     1    1
    20     1     2    1
    21     2     3    1
    22     2     4    1
    23     4     5    1
    24     5     9    1
    25     9    10   ar
    26    10    11   ar
    27    11    12   ar
    28    12    15    1
    29    15    16   ar
    30    16    17   ar
    31    17    18   ar
    32    18    19   ar
    33    19    20   ar
    34    20    21    1
    35    21    22    1
    36    22    23    1
    37    22    24    1
    38    22    25    1
    39    12    13   ar
    40    13    14   ar
    41     5     6   am
    42     6     7    2
    43     6     8    1
    44    33    34   ar
    45    34    35   ar
    46    42    43   ar
    47    43    44   ar
    48    44    36   ar
    49    44    40   ar
    50    35    30   ar
    51     8     2    1
    52    14     9   ar
    53    20    15   ar
    54    28    29    1
@<TRIPOS>MOLECULE
*****
 49 54 0 0 0
SMALL
GASTEIGER

@<TRIPOS>ATOM
      1 C         141.6462  138.4453  155.7453 C.3     1  UNL1        0.1318
      2 C         141.1005  138.6165  157.1320 C.3     1  UNL1        0.1741
      3 C         139.8053  138.8748  156.4208 C.3     1  UNL1        0.0473
      4 C         140.2841  138.8416  158.3700 C.3     1  UNL1        0.1446
      5 N         141.1887  138.6867  159.5563 N.am    1  UNL1       -0.2060
      6 C         142.5643  138.3658  159.0515 C.2     1  UNL1        0.4097
      7 O         143.7809  138.1297  159.8968 O.2     1  UNL1       -0.2258
      8 O         142.5099  138.3224  157.5532 O.3     1  UNL1       -0.4381
      9 C         140.7883  138.8279  160.9950 C.ar    1  UNL1        0.1400
     10 C         140.3095  140.1514  161.5137 C.ar    1  UNL1        0.0348
     11 C         139.9090  140.2927  162.9523 C.ar    1  UNL1        0.0045
     12 C         139.9873  139.1104  163.8722 C.ar    1  UNL1        0.0222
     13 C         140.4661  137.7869  163.3535 C.ar    1  UNL1        0.1004
     14 N         140.8666  137.6456  161.9149 N.ar    1  UNL1       -0.2287
     15 C         139.5868  139.2517  165.3108 C.ar    1  UNL1        0.0358
     16 C         138.2637  138.7204  165.7768 C.ar    1  UNL1        0.0031
     17 C         137.8633  138.8617  167.2154 C.ar    1  UNL1        0.0002
     18 C         138.7860  139.5344  168.1881 C.ar    1  UNL1        0.0031
     19 C         140.1090  140.0658  167.7223 C.ar    1  UNL1        0.0372
     20 C         140.5095  139.9245  166.2837 C.ar    1  UNL1        0.1468
     21 O         141.8326  140.4559  165.8178 O.3     1  UNL1       -0.4045
     22 C         142.9768  139.5155  165.5799 C.3     1  UNL1        0.5753
     23 F         144.1209  138.5752  165.3420 F       1  UNL1       -0.1328
     24 F         142.8342  138.9887  166.9770 F       1  UNL1       -0.1328
     25 F         143.1193  140.0424  164.1828 F       1  UNL1       -0.1328
     26 C         143.3293  140.2080  154.8451 C.2     1  UNL1        0.2459
     27 O         142.1943  141.1464  154.5603 O.2     1  UNL1       -0.2701
     28 N         143.0553  138.8575  155.4376 N.am    1  UNL1       -0.2976
     29 H         143.8003  138.2416  155.6245 H       1  UNL1        0.1499
     30 C         147.5566  141.4445  153.9222 C.ar    1  UNL1        0.0536
     31 C         147.0563  141.4805  155.3359 C.ar    1  UNL1        0.0048
     32 C         145.6472  141.0683  155.6435 C.ar    1  UNL1        0.0047
     33 C         144.7384  140.6202  154.5375 C.ar    1  UNL1        0.0534
     34 C         145.2386  140.5842  153.1238 C.ar    1  UNL1        0.0047
     35 C         146.6477  140.9964  152.8162 C.ar    1  UNL1        0.0048
     36 C         152.7694  141.4066  152.8455 C.ar    1  UNL1        0.0143
     37 C         153.7821  142.4841  152.5936 C.ar    1  UNL1        0.0091
     38 C         153.3670  143.9251  152.6227 C.ar    1  UNL1        0.0698
     39 C         151.9391  144.2889  152.9037 C.ar    1  UNL1        0.0326
     40 C         150.9264  143.2114  153.1556 C.ar    1  UNL1        0.1192
     41 N         149.4580  143.2648  153.4572 N.ar    1  UNL1       -0.2082
     42 C         148.9656  141.8566  153.6145 C.ar    1  UNL1        0.2296
     43 O         150.1297  140.9330  153.4101 O.2     1  UNL1       -0.4349
     44 C         151.3415  141.7703  153.1265 C.ar    1  UNL1        0.1607
     45 C         154.5656  139.5739  153.2515 C.3     1  UNL1        0.0048
     46 C         153.1846  139.9655  152.8164 C.3     1  UNL1        0.0254
     47 C         152.2186  138.9159  152.3522 C.3     1  UNL1        0.0048
     48 C         154.3797  145.0027  152.3708 C.1     1  UNL1        0.1005
     49 N         155.3925  146.0801  152.1189 N.1     1  UNL1       -0.1908
@<TRIPOS>BOND
     1    45    46    1
     2    46    47    1
     3    46    36    1
     4    36    37   ar
     5    37    38   ar
     6    38    48    1
     7    48    49    3
     8    38    39   ar
     9    39    40   ar
    10    40    41   ar
    11    41    42   ar
    12    42    30    1
    13    30    31   ar
    14    31    32   ar
    15    32    33   ar
    16    33    26    1
    17    26    27    2
    18    26    28   am
    19    28     1    1
    20     1     2    1
    21     2     3    1
    22     2     4    1
    23     4     5    1
    24     5     9    1
    25     9    10   ar
    26    10    11   ar
    27    11    12   ar
    28    12    15    1
    29    15    16   ar
    30    16    17   ar
    31    17    18   ar
    32    18    19   ar
    33    19    20   ar
    34    20    21    1
    35    21    22    1
    36    22    23    1
    37    22    24    1
    38    22    25    1
    39    12    13   ar
    40    13    14   ar
    41     5     6   am
    42     6     7    2
    43     6     8    1
    44    33    34   ar
    45    34    35   ar
    46    42    43   ar
    47    43    44   ar
    48    44    36   ar
    49    44    40   ar
    50    35    30   ar
    51     8     2    1
    52    14     9   ar
    53    20    15   ar
    54    28    29    1
@<TRIPOS>MOLECULE
*****
 49 54 0 0 0
SMALL
GASTEIGER

@<TRIPOS>ATOM
      1 C         141.2269  137.8290  154.1754 C.3     1  UNL1        0.1318
      2 C         141.6792  136.4372  154.5043 C.3     1  UNL1        0.1741
      3 C         141.2804  136.1419  153.0888 C.3     1  UNL1        0.0473
      4 C         142.0483  134.9837  154.5374 C.3     1  UNL1        0.1446
      5 N         142.5806  134.6716  155.9045 N.am    1  UNL1       -0.2060
      6 C         142.5406  135.9322  156.7164 C.2     1  UNL1        0.4097
      7 O         142.9805  136.0763  158.1433 O.2     1  UNL1       -0.2258
      8 O         141.9836  137.0234  155.8511 O.3     1  UNL1       -0.4381
      9 C         143.0675  133.3337  156.3769 C.ar    1  UNL1        0.1400
     10 C         144.4105  133.2138  157.0343 C.ar    1  UNL1        0.0348
     11 C         144.8975  131.8760  157.5067 C.ar    1  UNL1        0.0045
     12 C         144.0415  130.6582  157.3218 C.ar    1  UNL1        0.0222
     13 C         142.6985  130.7781  156.6645 C.ar    1  UNL1        0.1004
     14 N         142.2115  132.1159  156.1920 N.ar    1  UNL1       -0.2287
     15 C         144.5285  129.3205  157.7943 C.ar    1  UNL1        0.0358
     16 C         144.4016  128.9440  159.2407 C.ar    1  UNL1        0.0031
     17 C         144.8886  127.6063  159.7131 C.ar    1  UNL1        0.0002
     18 C         145.5026  126.6449  158.7391 C.ar    1  UNL1        0.0031
     19 C         145.6296  127.0213  157.2927 C.ar    1  UNL1        0.0372
     20 C         145.1426  128.3590  156.8203 C.ar    1  UNL1        0.1468
     21 O         145.2696  128.7354  155.3738 O.3     1  UNL1       -0.4045
     22 C         144.7198  127.8296  154.3121 C.3     1  UNL1        0.5753
     23 F         144.1700  126.9239  153.2503 F       1  UNL1       -0.1328
     24 F         146.0768  127.7491  153.6780 F       1  UNL1       -0.1328
     25 F         143.3628  127.9101  154.9461 F       1  UNL1       -0.1328
     26 C         139.2955  139.1908  155.2549 C.2     1  UNL1        0.2459
     27 O         140.2757  139.8463  156.1818 O.2     1  UNL1       -0.2701
     28 N         139.7710  138.1821  154.2516 N.am    1  UNL1       -0.2976
     29 H         139.1276  137.7518  153.6433 H       1  UNL1        0.1499
     30 C         134.9279  140.2502  155.4837 C.ar    1  UNL1        0.0536
     31 C         135.9205  140.9701  156.3477 C.ar    1  UNL1        0.0048
     32 C         137.3764  140.6169  156.2714 C.ar    1  UNL1        0.0047
     33 C         137.8396  139.5439  155.3311 C.ar    1  UNL1        0.0534
     34 C         136.8470  138.8241  154.4671 C.ar    1  UNL1        0.0047
     35 C         135.3911  139.1773  154.5434 C.ar    1  UNL1        0.0048
     36 C         129.7209  140.2390  156.5888 C.ar    1  UNL1        0.0143
     37 C         128.5852  141.1516  156.2322 C.ar    1  UNL1        0.0091
     38 C         128.8352  142.3651  155.3868 C.ar    1  UNL1        0.0698
     39 C         130.2211  142.6661  154.8980 C.ar    1  UNL1        0.0326
     40 C         131.3568  141.7535  155.2547 C.ar    1  UNL1        0.1192
     41 N         132.8187  141.7927  154.9209 N.ar    1  UNL1       -0.2082
     42 C         133.4721  140.6034  155.5600 C.ar    1  UNL1        0.2296
     43 O         132.4140  139.8291  156.2888 O.2     1  UNL1       -0.4349
     44 C         131.1067  140.5399  156.1001 C.ar    1  UNL1        0.1607
     45 C         129.0988  139.1815  158.8789 C.3     1  UNL1        0.0048
     46 C         129.4708  139.0254  157.4342 C.3     1  UNL1        0.0254
     47 C         129.5928  137.6557  156.8349 C.3     1  UNL1        0.0048
     48 C         127.6994  143.2777  155.0301 C.1     1  UNL1        0.1005
     49 N         126.5636  144.1903  154.6735 N.1     1  UNL1       -0.1908
@<TRIPOS>BOND
     1    45    46    1
     2    46    47    1
     3    46    36    1
     4    36    37   ar
     5    37    38   ar
     6    38    48    1
     7    48    49    3
     8    38    39   ar
     9    39    40   ar
    10    40    41   ar
    11    41    42   ar
    12    42    30    1
    13    30    31   ar
    14    31    32   ar
    15    32    33   ar
    16    33    26    1
    17    26    27    2
    18    26    28   am
    19    28     1    1
    20     1     2    1
    21     2     3    1
    22     2     4    1
    23     4     5    1
    24     5     9    1
    25     9    10   ar
    26    10    11   ar
    27    11    12   ar
    28    12    15    1
    29    15    16   ar
    30    16    17   ar
    31    17    18   ar
    32    18    19   ar
    33    19    20   ar
    34    20    21    1
    35    21    22    1
    36    22    23    1
    37    22    24    1
    38    22    25    1
    39    12    13   ar
    40    13    14   ar
    41     5     6   am
    42     6     7    2
    43     6     8    1
    44    33    34   ar
    45    34    35   ar
    46    42    43   ar
    47    43    44   ar
    48    44    36   ar
    49    44    40   ar
    50    35    30   ar
    51     8     2    1
    52    14     9   ar
    53    20    15   ar
    54    28    29    1
@<TRIPOS>MOLECULE
*****
 49 54 0 0 0
SMALL
GASTEIGER

@<TRIPOS>ATOM
      1 C         138.3541  139.8258  154.9752 C.3     1  UNL1        0.1318
      2 C         137.0595  140.4464  154.5410 C.3     1  UNL1        0.1741
      3 C         137.9255  141.1966  153.5729 C.3     1  UNL1        0.0473
      4 C         135.9458  141.2239  153.9044 C.3     1  UNL1        0.1446
      5 N         134.6623  140.8245  154.5698 N.am    1  UNL1       -0.2060
      6 C         134.9826  139.8002  155.6177 C.2     1  UNL1        0.4097
      7 O         133.9947  139.1276  156.5243 O.2     1  UNL1       -0.2258
      8 O         136.4641  139.5665  155.6000 O.3     1  UNL1       -0.4381
      9 C         133.2979  141.3561  154.2445 C.ar    1  UNL1        0.1400
     10 C         132.2578  141.4608  155.3203 C.ar    1  UNL1        0.0348
     11 C         130.8933  141.9924  154.9952 C.ar    1  UNL1        0.0045
     12 C         130.5689  142.4192  153.5943 C.ar    1  UNL1        0.0222
     13 C         131.6090  142.3144  152.5185 C.ar    1  UNL1        0.1004
     14 N         132.9735  141.7829  152.8436 N.ar    1  UNL1       -0.2287
     15 C         129.2045  142.9507  153.2691 C.ar    1  UNL1        0.0358
     16 C         128.8883  144.3984  153.5022 C.ar    1  UNL1        0.0031
     17 C         127.5239  144.9298  153.1770 C.ar    1  UNL1        0.0002
     18 C         126.4755  144.0136  152.6188 C.ar    1  UNL1        0.0031
     19 C         126.7916  142.5660  152.3858 C.ar    1  UNL1        0.0372
     20 C         128.1561  142.0345  152.7109 C.ar    1  UNL1        0.1468
     21 O         128.4722  140.5868  152.4779 O.3     1  UNL1       -0.4045
     22 C         127.6820  139.5238  153.1819 C.3     1  UNL1        0.5753
     23 F         126.8918  138.4608  153.8858 F       1  UNL1       -0.1328
     24 F         128.5478  139.6843  154.3961 F       1  UNL1       -0.1328
     25 F         126.8161  139.3633  151.9676 F       1  UNL1       -0.1328
     26 C         138.9058  140.9084  157.2717 C.2     1  UNL1        0.2459
     27 O         138.8331  142.2703  156.6471 O.2     1  UNL1       -0.2701
     28 N         138.6663  139.6862  156.4358 N.am    1  UNL1       -0.2976
     29 H         138.7140  138.7924  156.8457 H       1  UNL1        0.1499
     30 C         139.8423  140.4898  161.6532 C.ar    1  UNL1        0.0536
     31 C         139.1093  141.7001  161.1553 C.ar    1  UNL1        0.0048
     32 C         138.7972  141.8395  159.6947 C.ar    1  UNL1        0.0047
     33 C         139.2180  140.7689  158.7322 C.ar    1  UNL1        0.0534
     34 C         139.9510  139.5586  159.2301 C.ar    1  UNL1        0.0047
     35 C         140.2631  139.4191  160.6907 C.ar    1  UNL1        0.0048
     36 C         142.2351  139.4107  166.2840 C.ar    1  UNL1        0.0143
     37 C         141.8405  139.5918  167.7198 C.ar    1  UNL1        0.0091
     38 C         140.5108  140.1956  168.0618 C.ar    1  UNL1        0.0698
     39 C         139.5754  140.6184  166.9679 C.ar    1  UNL1        0.0326
     40 C         139.9700  140.4373  165.5322 C.ar    1  UNL1        0.1192
     41 N         139.2621  140.7567  164.2488 N.ar    1  UNL1       -0.2082
     42 C         140.1545  140.3502  163.1137 C.ar    1  UNL1        0.2296
     43 O         141.4138  139.7797  163.6955 O.2     1  UNL1       -0.4349
     44 C         141.2998  139.8335  165.1902 C.ar    1  UNL1        0.1607
     45 C         144.3509  139.3339  164.7783 C.3     1  UNL1        0.0048
     46 C         143.5649  138.8069  165.9421 C.3     1  UNL1        0.0254
     47 C         144.1088  137.6760  166.7640 C.3     1  UNL1        0.0048
     48 C         140.1162  140.3766  169.4977 C.1     1  UNL1        0.1005
     49 N         139.7216  140.5576  170.9335 N.1     1  UNL1       -0.1908
@<TRIPOS>BOND
     1    45    46    1
     2    46    47    1
     3    46    36    1
     4    36    37   ar
     5    37    38   ar
     6    38    48    1
     7    48    49    3
     8    38    39   ar
     9    39    40   ar
    10    40    41   ar
    11    41    42   ar
    12    42    30    1
    13    30    31   ar
    14    31    32   ar
    15    32    33   ar
    16    33    26    1
    17    26    27    2
    18    26    28   am
    19    28     1    1
    20     1     2    1
    21     2     3    1
    22     2     4    1
    23     4     5    1
    24     5     9    1
    25     9    10   ar
    26    10    11   ar
    27    11    12   ar
    28    12    15    1
    29    15    16   ar
    30    16    17   ar
    31    17    18   ar
    32    18    19   ar
    33    19    20   ar
    34    20    21    1
    35    21    22    1
    36    22    23    1
    37    22    24    1
    38    22    25    1
    39    12    13   ar
    40    13    14   ar
    41     5     6   am
    42     6     7    2
    43     6     8    1
    44    33    34   ar
    45    34    35   ar
    46    42    43   ar
    47    43    44   ar
    48    44    36   ar
    49    44    40   ar
    50    35    30   ar
    51     8     2    1
    52    14     9   ar
    53    20    15   ar
    54    28    29    1
@<TRIPOS>MOLECULE
*****
 49 54 0 0 0
SMALL
GASTEIGER

@<TRIPOS>ATOM
      1 C         138.4085  140.6838  155.8002 C.3     1  UNL1        0.1318
      2 C         137.0996  141.2268  155.3082 C.3     1  UNL1        0.1741
      3 C         137.9125  142.4388  154.9615 C.3     1  UNL1        0.0473
      4 C         135.9607  142.0231  154.7438 C.3     1  UNL1        0.1446
      5 N         134.7177  141.1898  154.8445 N.am    1  UNL1       -0.2060
      6 C         135.0883  139.8783  155.4712 C.2     1  UNL1        0.4097
      7 O         134.1512  138.7433  155.7605 O.2     1  UNL1       -0.2258
      8 O         136.5604  139.9011  155.7578 O.3     1  UNL1       -0.4381
      9 C         133.3448  141.5963  154.3971 C.ar    1  UNL1        0.1400
     10 C         132.2193  141.6520  155.3871 C.ar    1  UNL1        0.0348
     11 C         130.8465  142.0586  154.9398 C.ar    1  UNL1        0.0045
     12 C         130.5992  142.4094  153.5026 C.ar    1  UNL1        0.0222
     13 C         131.7247  142.3537  152.5126 C.ar    1  UNL1        0.1004
     14 N         133.0976  141.9472  152.9598 N.ar    1  UNL1       -0.2287
     15 C         129.2264  142.8160  153.0553 C.ar    1  UNL1        0.0358
     16 C         128.9160  144.2624  152.8070 C.ar    1  UNL1        0.0031
     17 C         127.5432  144.6688  152.3598 C.ar    1  UNL1        0.0002
     18 C         126.4806  143.6289  152.1608 C.ar    1  UNL1        0.0031
     19 C         126.7909  142.1826  152.4090 C.ar    1  UNL1        0.0372
     20 C         128.1637  141.7761  152.8563 C.ar    1  UNL1        0.1468
     21 O         128.4740  140.3296  153.1045 O.3     1  UNL1       -0.4045
     22 C         127.7346  139.5761  154.1701 C.3     1  UNL1        0.5753
     23 F         126.9952  138.8226  155.2357 F       1  UNL1       -0.1328
     24 F         127.4457  138.4763  153.1919 F       1  UNL1       -0.1328
     25 F         128.0236  140.6759  155.1483 F       1  UNL1       -0.1328
     26 C         139.9742  141.4374  157.7316 C.2     1  UNL1        0.2459
     27 O         140.8822  142.0988  156.7376 O.2     1  UNL1       -0.2701
     28 N         138.7374  140.7299  157.2630 N.am    1  UNL1       -0.2976
     29 H         138.1414  140.2959  157.9154 H       1  UNL1        0.1499
     30 C         140.9609  141.5759  162.1200 C.ar    1  UNL1        0.0536
     31 C         142.0639  141.5461  161.1039 C.ar    1  UNL1        0.0048
     32 C         141.7349  141.4999  159.6411 C.ar    1  UNL1        0.0047
     33 C         140.3031  141.4836  159.1944 C.ar    1  UNL1        0.0534
     34 C         139.2001  141.5134  160.2106 C.ar    1  UNL1        0.0047
     35 C         139.5291  141.5596  161.6734 C.ar    1  UNL1        0.0048
     36 C         140.8290  140.9648  167.4062 C.ar    1  UNL1        0.0143
     37 C         141.7396  141.3889  168.5201 C.ar    1  UNL1        0.0091
     38 C         142.9911  142.1571  168.2146 C.ar    1  UNL1        0.0698
     39 C         143.3322  142.5012  166.7949 C.ar    1  UNL1        0.0326
     40 C         142.4216  142.0772  165.6809 C.ar    1  UNL1        0.1192
     41 N         142.4956  142.2707  164.1953 N.ar    1  UNL1       -0.2082
     42 C         141.2898  141.6221  163.5828 C.ar    1  UNL1        0.2296
     43 O         140.4705  141.0277  164.6898 O.2     1  UNL1       -0.4349
     44 C         141.1700  141.3090  165.9866 C.ar    1  UNL1        0.1607
     45 C         139.0085  140.2113  169.0996 C.3     1  UNL1        0.0048
     46 C         139.5774  140.1966  167.7118 C.3     1  UNL1        0.0254
     47 C         138.8948  139.4137  166.6295 C.3     1  UNL1        0.0048
     48 C         143.9018  142.5812  169.3286 C.1     1  UNL1        0.1005
     49 N         144.8123  143.0052  170.4426 N.1     1  UNL1       -0.1908
@<TRIPOS>BOND
     1    45    46    1
     2    46    47    1
     3    46    36    1
     4    36    37   ar
     5    37    38   ar
     6    38    48    1
     7    48    49    3
     8    38    39   ar
     9    39    40   ar
    10    40    41   ar
    11    41    42   ar
    12    42    30    1
    13    30    31   ar
    14    31    32   ar
    15    32    33   ar
    16    33    26    1
    17    26    27    2
    18    26    28   am
    19    28     1    1
    20     1     2    1
    21     2     3    1
    22     2     4    1
    23     4     5    1
    24     5     9    1
    25     9    10   ar
    26    10    11   ar
    27    11    12   ar
    28    12    15    1
    29    15    16   ar
    30    16    17   ar
    31    17    18   ar
    32    18    19   ar
    33    19    20   ar
    34    20    21    1
    35    21    22    1
    36    22    23    1
    37    22    24    1
    38    22    25    1
    39    12    13   ar
    40    13    14   ar
    41     5     6   am
    42     6     7    2
    43     6     8    1
    44    33    34   ar
    45    34    35   ar
    46    42    43   ar
    47    43    44   ar
    48    44    36   ar
    49    44    40   ar
    50    35    30   ar
    51     8     2    1
    52    14     9   ar
    53    20    15   ar
    54    28    29    1
@<TRIPOS>MOLECULE
*****
 49 54 0 0 0
SMALL
GASTEIGER

@<TRIPOS>ATOM
      1 C         140.6565  138.5110  154.2127 C.3     1  UNL1        0.1318
      2 C         140.9253  137.0705  153.8923 C.3     1  UNL1        0.1741
      3 C         139.6924  137.1917  153.0466 C.3     1  UNL1        0.0473
      4 C         140.9364  135.6553  153.3952 C.3     1  UNL1        0.1446
      5 N         142.1199  134.9606  154.0006 N.am    1  UNL1       -0.2060
      6 C         142.8403  135.9465  154.8719 C.2     1  UNL1        0.4097
      7 O         144.0812  135.6758  155.6700 O.2     1  UNL1       -0.2258
      8 O         142.1021  137.2504  154.8050 O.3     1  UNL1       -0.4381
      9 C         142.5139  133.5311  153.7745 C.ar    1  UNL1        0.1400
     10 C         142.2663  132.8866  152.4428 C.ar    1  UNL1        0.0348
     11 C         142.6603  131.4570  152.2166 C.ar    1  UNL1        0.0045
     12 C         143.3020  130.6720  153.3221 C.ar    1  UNL1        0.0222
     13 C         143.5496  131.3165  154.6537 C.ar    1  UNL1        0.1004
     14 N         143.1556  132.7461  154.8800 N.ar    1  UNL1       -0.2287
     15 C         143.6960  129.2425  153.0958 C.ar    1  UNL1        0.0358
     16 C         145.0904  128.9096  152.6544 C.ar    1  UNL1        0.0031
     17 C         145.4843  127.4801  152.4282 C.ar    1  UNL1        0.0002
     18 C         144.4839  126.3834  152.6434 C.ar    1  UNL1        0.0031
     19 C         143.0895  126.7161  153.0848 C.ar    1  UNL1        0.0372
     20 C         142.6955  128.1457  153.3110 C.ar    1  UNL1        0.1468
     21 O         141.3011  128.4785  153.7525 O.3     1  UNL1       -0.4045
     22 C         140.8344  128.0858  155.1229 C.3     1  UNL1        0.5753
     23 F         140.3677  127.6931  156.4933 F       1  UNL1       -0.1328
     24 F         139.4517  127.8599  154.5872 F       1  UNL1       -0.1328
     25 F         142.2172  128.3117  155.6585 F       1  UNL1       -0.1328
     26 C         139.9567  138.5643  156.7141 C.2     1  UNL1        0.2459
     27 O         138.8453  137.5997  156.4239 O.2     1  UNL1       -0.2701
     28 N         140.8623  139.0200  155.6086 N.am    1  UNL1       -0.2976
     29 H         141.5917  139.6531  155.7992 H       1  UNL1        0.1499
     30 C         140.5741  140.0912  160.9020 C.ar    1  UNL1        0.0536
     31 C         141.5602  139.1349  160.2994 C.ar    1  UNL1        0.0048
     32 C         141.3543  138.6260  158.9034 C.ar    1  UNL1        0.0047
     33 C         140.1625  139.0733  158.1101 C.ar    1  UNL1        0.0534
     34 C         139.1764  140.0295  158.7127 C.ar    1  UNL1        0.0047
     35 C         139.3823  140.5385  160.1087 C.ar    1  UNL1        0.0048
     36 C         142.5188  142.5358  165.2120 C.ar    1  UNL1        0.0143
     37 C         142.0750  142.6207  166.6423 C.ar    1  UNL1        0.0091
     38 C         140.8312  141.9091  167.0852 C.ar    1  UNL1        0.0698
     39 C         140.0309  141.1125  166.0977 C.ar    1  UNL1        0.0326
     40 C         140.4746  141.0275  164.6674 C.ar    1  UNL1        0.1192
     41 N         139.8945  140.3236  163.4767 N.ar    1  UNL1       -0.2082
     42 C         140.7799  140.6001  162.2979 C.ar    1  UNL1        0.2296
     43 O         141.9073  141.4750  162.7601 O.2     1  UNL1       -0.4349
     44 C         141.7186  141.7392  164.2246 C.ar    1  UNL1        0.1607
     45 C         145.0585  142.4989  164.6657 C.3     1  UNL1        0.0048
     46 C         143.7628  143.2474  164.7692 C.3     1  UNL1        0.0254
     47 C         143.7110  144.7077  164.4298 C.3     1  UNL1        0.0048
     48 C         140.3874  141.9941  168.5156 C.1     1  UNL1        0.1005
     49 N         139.9436  142.0790  169.9459 N.1     1  UNL1       -0.1908
@<TRIPOS>BOND
     1    45    46    1
     2    46    47    1
     3    46    36    1
     4    36    37   ar
     5    37    38   ar
     6    38    48    1
     7    48    49    3
     8    38    39   ar
     9    39    40   ar
    10    40    41   ar
    11    41    42   ar
    12    42    30    1
    13    30    31   ar
    14    31    32   ar
    15    32    33   ar
    16    33    26    1
    17    26    27    2
    18    26    28   am
    19    28     1    1
    20     1     2    1
    21     2     3    1
    22     2     4    1
    23     4     5    1
    24     5     9    1
    25     9    10   ar
    26    10    11   ar
    27    11    12   ar
    28    12    15    1
    29    15    16   ar
    30    16    17   ar
    31    17    18   ar
    32    18    19   ar
    33    19    20   ar
    34    20    21    1
    35    21    22    1
    36    22    23    1
    37    22    24    1
    38    22    25    1
    39    12    13   ar
    40    13    14   ar
    41     5     6   am
    42     6     7    2
    43     6     8    1
    44    33    34   ar
    45    34    35   ar
    46    42    43   ar
    47    43    44   ar
    48    44    36   ar
    49    44    40   ar
    50    35    30   ar
    51     8     2    1
    52    14     9   ar
    53    20    15   ar
    54    28    29    1
