@<TRIPOS>MOLECULE
*****
 30 33 0 0 0
SMALL
GASTEIGER

@<TRIPOS>ATOM
      1 N         139.3976  138.2882  164.1409 N.3     1  UNL1       -0.2727
      2 C         138.4550  138.0860  165.2901 C.3     1  UNL1        0.0724
      3 C         138.6801  138.8144  166.5818 C.3     1  UNL1        0.0220
      4 C         139.8479  139.7450  166.7244 C.3     1  UNL1        0.0329
      5 C         140.7905  139.9471  165.5753 C.3     1  UNL1        0.0220
      6 C         140.5653  139.2187  164.2835 C.3     1  UNL1        0.0724
      7 C         138.9053  139.5428  167.8736 C.3     1  UNL1        0.0898
      8 C         139.1305  140.2713  169.1654 C.2     1  UNL1        0.2307
      9 O         138.1878  140.0691  170.3146 O.2     1  UNL1       -0.2745
     10 N         140.2982  141.2018  169.3080 N.am    1  UNL1       -0.2441
     11 C         141.2408  141.4040  168.1589 C.ar    1  UNL1        0.1333
     12 N         142.4086  142.3346  168.3015 N.ar    1  UNL1       -0.2291
     13 C         143.3512  142.5367  167.1522 C.ar    1  UNL1        0.1003
     14 C         143.1261  141.8083  165.8605 C.ar    1  UNL1        0.0204
     15 C         141.9583  140.8777  165.7179 C.ar    1  UNL1        0.0001
     16 C         141.0157  140.6756  166.8670 C.ar    1  UNL1        0.0097
     17 C         140.5234  141.9303  170.5998 C.3     1  UNL1        0.0997
     18 C         139.8384  143.2408  170.8511 C.3     1  UNL1        0.0237
     19 C         139.1724  137.5597  162.8491 C.3     1  UNL1        0.0722
     20 C         138.4599  140.6427  157.7513 C.2     1  UNL1        0.4049
     21 O         139.5263  140.6054  156.6969 O.2     1  UNL1       -0.2262
     22 N         138.6380  139.8719  159.0257 N.am    1  UNL1       -0.2460
     23 C         137.5717  139.9092  160.0800 C.3     1  UNL1        0.0968
     24 C         137.7498  139.1385  161.3545 C.3     1  UNL1        0.0231
     25 C         138.9943  138.3305  161.5747 C.3     1  UNL1        0.0194
     26 C         140.0606  138.2932  160.5203 C.3     1  UNL1        0.0231
     27 C         139.8825  139.0639  159.2459 C.3     1  UNL1        0.0968
     28 O         137.2155  141.4507  157.5312 O.3     1  UNL1       -0.4345
     29 C         135.1426  140.6779  156.1687 C.3     1  UNL1        0.0513
     30 C         136.4799  141.3548  156.2274 C.3     1  UNL1        0.2102
@<TRIPOS>BOND
     1    29    30    1
     2    30    28    1
     3    28    20    1
     4    20    21    2
     5    20    22   am
     6    22    23    1
     7    23    24    1
     8    24    25    1
     9    25    19    1
    10    19     1    1
    11     1     2    1
    12     2     3    1
    13     3     4    1
    14     4     5    1
    15     5     6    1
    16     4     7    1
    17     7     8    1
    18     8     9    2
    19     8    10   am
    20    10    17    1
    21    17    18    1
    22    10    11    1
    23    11    12   ar
    24    12    13   ar
    25    13    14   ar
    26    14    15   ar
    27    15    16   ar
    28    25    26    1
    29    26    27    1
    30    27    22    1
    31     6     1    1
    32    16    11   ar
    33    16     4    1
@<TRIPOS>MOLECULE
*****
 30 33 0 0 0
SMALL
GASTEIGER

@<TRIPOS>ATOM
      1 N         140.5958  139.8244  163.0122 N.3     1  UNL1       -0.2727
      2 C         140.9565  139.4653  161.6012 C.3     1  UNL1        0.0724
      3 C         140.9664  140.5226  160.5374 C.3     1  UNL1        0.0220
      4 C         140.6157  141.9391  160.8845 C.3     1  UNL1        0.0329
      5 C         140.2549  142.2983  162.2954 C.3     1  UNL1        0.0220
      6 C         140.2450  141.2409  163.3593 C.3     1  UNL1        0.0724
      7 C         140.9764  141.5800  159.4734 C.3     1  UNL1        0.0898
      8 C         140.9864  142.6374  158.4096 C.2     1  UNL1        0.2307
      9 O         141.3471  142.2783  156.9985 O.2     1  UNL1       -0.2745
     10 N         140.6356  144.0539  158.7567 N.am    1  UNL1       -0.2441
     11 C         140.2749  144.4130  160.1676 C.ar    1  UNL1        0.1333
     12 N         139.9241  145.8295  160.5147 N.ar    1  UNL1       -0.2291
     13 C         139.5633  146.1886  161.9258 C.ar    1  UNL1        0.1003
     14 C         139.5534  145.1313  162.9896 C.ar    1  UNL1        0.0204
     15 C         139.9042  143.7148  162.6425 C.ar    1  UNL1        0.0001
     16 C         140.2649  143.3556  161.2316 C.ar    1  UNL1        0.0097
     17 C         140.6456  145.1113  157.6927 C.3     1  UNL1        0.0997
     18 C         141.9134  145.8498  157.3811 C.3     1  UNL1        0.0237
     19 C         140.5858  138.7670  164.0761 C.3     1  UNL1        0.0722
     20 C         139.4790  140.2614  169.7806 C.2     1  UNL1        0.4049
     21 O         138.0901  140.1350  170.3331 O.2     1  UNL1       -0.2262
     22 N         139.7557  139.8878  168.3545 N.am    1  UNL1       -0.2460
     23 C         141.1444  140.0142  167.8020 C.3     1  UNL1        0.0968
     24 C         141.4212  139.6406  166.3759 C.3     1  UNL1        0.0231
     25 C         140.3091  139.1406  165.5022 C.3     1  UNL1        0.0194
     26 C         138.9202  139.0142  166.0547 C.3     1  UNL1        0.0231
     27 C         138.6436  139.3878  167.4808 C.3     1  UNL1        0.0968
     28 O         140.5911  140.7614  170.6542 O.3     1  UNL1       -0.4345
     29 C         140.2344  143.2110  169.8653 C.3     1  UNL1        0.0513
     30 C         140.7704  142.2349  170.8703 C.3     1  UNL1        0.2102
@<TRIPOS>BOND
     1    29    30    1
     2    30    28    1
     3    28    20    1
     4    20    21    2
     5    20    22   am
     6    22    23    1
     7    23    24    1
     8    24    25    1
     9    25    19    1
    10    19     1    1
    11     1     2    1
    12     2     3    1
    13     3     4    1
    14     4     5    1
    15     5     6    1
    16     4     7    1
    17     7     8    1
    18     8     9    2
    19     8    10   am
    20    10    17    1
    21    17    18    1
    22    10    11    1
    23    11    12   ar
    24    12    13   ar
    25    13    14   ar
    26    14    15   ar
    27    15    16   ar
    28    25    26    1
    29    26    27    1
    30    27    22    1
    31     6     1    1
    32    16    11   ar
    33    16     4    1
@<TRIPOS>MOLECULE
*****
 30 33 0 0 0
SMALL
GASTEIGER

@<TRIPOS>ATOM
      1 N         139.4073  138.3036  164.1100 N.3     1  UNL1       -0.2727
      2 C         138.4629  138.1002  165.2575 C.3     1  UNL1        0.0724
      3 C         138.6886  138.8238  166.5518 C.3     1  UNL1        0.0220
      4 C         139.8586  139.7508  166.6987 C.3     1  UNL1        0.0329
      5 C         140.8030  139.9543  165.5512 C.3     1  UNL1        0.0220
      6 C         140.5773  139.2307  164.2569 C.3     1  UNL1        0.0724
      7 C         138.9142  139.5474  167.8463 C.3     1  UNL1        0.0898
      8 C         139.1399  140.2710  169.1406 C.2     1  UNL1        0.2307
      9 O         138.1955  140.0676  170.2882 O.2     1  UNL1       -0.2745
     10 N         140.3099  141.1981  169.2875 N.am    1  UNL1       -0.2441
     11 C         141.2543  141.4016  168.1400 C.ar    1  UNL1        0.1333
     12 N         142.4243  142.3286  168.2869 N.ar    1  UNL1       -0.2291
     13 C         143.3687  142.5320  167.1394 C.ar    1  UNL1        0.1003
     14 C         143.1430  141.8084  165.8450 C.ar    1  UNL1        0.0204
     15 C         141.9730  140.8814  165.6981 C.ar    1  UNL1        0.0001
     16 C         141.0286  140.6779  166.8456 C.ar    1  UNL1        0.0097
     17 C         140.5356  141.9218  170.5820 C.3     1  UNL1        0.0997
     18 C         139.7844  143.1866  170.8749 C.3     1  UNL1        0.0237
     19 C         139.1816  137.5800  162.8156 C.3     1  UNL1        0.0722
     20 C         138.4975  140.6808  157.7248 C.2     1  UNL1        0.4049
     21 O         137.2456  141.4738  157.4920 O.2     1  UNL1       -0.2262
     22 N         138.6685  139.9056  158.9975 N.am    1  UNL1       -0.2460
     23 C         139.9203  139.1127  159.2302 C.3     1  UNL1        0.0968
     24 C         140.0914  138.3375  160.5029 C.3     1  UNL1        0.0231
     25 C         139.0106  138.3552  161.5429 C.3     1  UNL1        0.0194
     26 C         137.7587  139.1481  161.3101 C.3     1  UNL1        0.0231
     27 C         137.5877  139.9233  160.0375 C.3     1  UNL1        0.0968
     28 O         139.5783  140.6631  156.6848 O.3     1  UNL1       -0.4345
     29 C         141.8172  141.7846  157.3775 C.3     1  UNL1        0.0513
     30 C         140.5430  141.8075  156.5862 C.3     1  UNL1        0.2102
@<TRIPOS>BOND
     1    29    30    1
     2    30    28    1
     3    28    20    1
     4    20    21    2
     5    20    22   am
     6    22    23    1
     7    23    24    1
     8    24    25    1
     9    25    19    1
    10    19     1    1
    11     1     2    1
    12     2     3    1
    13     3     4    1
    14     4     5    1
    15     5     6    1
    16     4     7    1
    17     7     8    1
    18     8     9    2
    19     8    10   am
    20    10    17    1
    21    17    18    1
    22    10    11    1
    23    11    12   ar
    24    12    13   ar
    25    13    14   ar
    26    14    15   ar
    27    15    16   ar
    28    25    26    1
    29    26    27    1
    30    27    22    1
    31     6     1    1
    32    16    11   ar
    33    16     4    1
@<TRIPOS>MOLECULE
*****
 30 33 0 0 0
SMALL
GASTEIGER

@<TRIPOS>ATOM
      1 N         139.8537  139.0223  162.9103 N.3     1  UNL1       -0.2727
      2 C         139.0527  138.4051  161.8025 C.3     1  UNL1        0.0724
      3 C         138.6852  139.2207  160.5984 C.3     1  UNL1        0.0220
      4 C         139.1188  140.6534  160.5022 C.3     1  UNL1        0.0329
      5 C         139.9198  141.2706  161.6100 C.3     1  UNL1        0.0220
      6 C         140.2873  140.4551  162.8141 C.3     1  UNL1        0.0724
      7 C         138.3177  140.0362  159.3943 C.3     1  UNL1        0.0898
      8 C         137.9502  140.8518  158.1902 C.2     1  UNL1        0.2307
      9 O         137.1491  140.2346  157.0823 O.2     1  UNL1       -0.2745
     10 N         138.3838  142.2845  158.0940 N.am    1  UNL1       -0.2441
     11 C         139.1848  142.9017  159.2018 C.ar    1  UNL1        0.1333
     12 N         139.6184  144.3345  159.1056 N.ar    1  UNL1       -0.2291
     13 C         140.4195  144.9517  160.2135 C.ar    1  UNL1        0.1003
     14 C         140.7870  144.1361  161.4176 C.ar    1  UNL1        0.0204
     15 C         140.3534  142.7034  161.5138 C.ar    1  UNL1        0.0001
     16 C         139.5523  142.0862  160.4060 C.ar    1  UNL1        0.0097
     17 C         138.0163  143.1001  156.8898 C.3     1  UNL1        0.0997
     18 C         138.9009  143.0898  155.6786 C.3     1  UNL1        0.0237
     19 C         140.2212  138.2068  164.1144 C.3     1  UNL1        0.0722
     20 C         139.5404  140.5039  169.6153 C.2     1  UNL1        0.4049
     21 O         138.1889  140.5039  170.2661 O.2     1  UNL1       -0.2262
     22 N         139.7106  139.9296  168.2401 N.am    1  UNL1       -0.2460
     23 C         141.0620  139.9297  167.5893 C.3     1  UNL1        0.0968
     24 C         141.2323  139.3554  166.2141 C.3     1  UNL1        0.0231
     25 C         140.0510  138.7811  165.4896 C.3     1  UNL1        0.0194
     26 C         138.6995  138.7810  166.1405 C.3     1  UNL1        0.0231
     27 C         138.5293  139.3553  167.5157 C.3     1  UNL1        0.0968
     28 O         140.7216  141.0782  170.3397 O.3     1  UNL1       -0.4345
     29 C         140.3925  143.4790  169.4025 C.3     1  UNL1        0.0513
     30 C         140.8548  142.5640  170.4976 C.3     1  UNL1        0.2102
@<TRIPOS>BOND
     1    29    30    1
     2    30    28    1
     3    28    20    1
     4    20    21    2
     5    20    22   am
     6    22    23    1
     7    23    24    1
     8    24    25    1
     9    25    19    1
    10    19     1    1
    11     1     2    1
    12     2     3    1
    13     3     4    1
    14     4     5    1
    15     5     6    1
    16     4     7    1
    17     7     8    1
    18     8     9    2
    19     8    10   am
    20    10    17    1
    21    17    18    1
    22    10    11    1
    23    11    12   ar
    24    12    13   ar
    25    13    14   ar
    26    14    15   ar
    27    15    16   ar
    28    25    26    1
    29    26    27    1
    30    27    22    1
    31     6     1    1
    32    16    11   ar
    33    16     4    1
@<TRIPOS>MOLECULE
*****
 30 33 0 0 0
SMALL
GASTEIGER

@<TRIPOS>ATOM
      1 N         141.6644  140.4593  163.4518 N.3     1  UNL1       -0.2727
      2 C         140.7578  141.6374  163.6524 C.3     1  UNL1        0.0724
      3 C         140.6909  142.7175  162.6138 C.3     1  UNL1        0.0220
      4 C         141.5304  142.6196  161.3746 C.3     1  UNL1        0.0329
      5 C         142.4370  141.4415  161.1741 C.3     1  UNL1        0.0220
      6 C         142.5040  140.3614  162.2127 C.3     1  UNL1        0.0724
      7 C         140.6238  143.7978  161.5752 C.3     1  UNL1        0.0898
      8 C         140.5568  144.8779  160.5366 C.2     1  UNL1        0.2307
      9 O         139.6502  146.0561  160.7371 O.2     1  UNL1       -0.2745
     10 N         141.3964  144.7800  159.2974 N.am    1  UNL1       -0.2441
     11 C         142.3030  143.6019  159.0968 C.ar    1  UNL1        0.1333
     12 N         143.1425  143.5040  157.8577 N.ar    1  UNL1       -0.2291
     13 C         144.0491  142.3259  157.6571 C.ar    1  UNL1        0.1003
     14 C         144.1161  141.2457  158.6957 C.ar    1  UNL1        0.0204
     15 C         143.2765  141.3436  159.9349 C.ar    1  UNL1        0.0001
     16 C         142.3700  142.5217  160.1355 C.ar    1  UNL1        0.0097
     17 C         141.3294  145.8602  158.2588 C.3     1  UNL1        0.0997
     18 C         140.1915  145.8920  157.2820 C.3     1  UNL1        0.0237
     19 C         141.7314  139.3791  164.4905 C.3     1  UNL1        0.0722
     20 C         139.4547  140.3303  169.9596 C.2     1  UNL1        0.4049
     21 O         138.0141  140.0176  170.2371 O.2     1  UNL1       -0.2262
     22 N         140.0239  140.0925  168.5923 N.am    1  UNL1       -0.2460
     23 C         141.4644  140.4052  168.3148 C.3     1  UNL1        0.0968
     24 C         142.0336  140.1674  166.9475 C.3     1  UNL1        0.0231
     25 C         141.1623  139.6169  165.8577 C.3     1  UNL1        0.0194
     26 C         139.7217  139.3041  166.1353 C.3     1  UNL1        0.0231
     27 C         139.1525  139.5419  167.5025 C.3     1  UNL1        0.0968
     28 O         140.3261  140.8809  171.0493 O.3     1  UNL1       -0.4345
     29 C         140.2032  143.3094  170.1343 C.3     1  UNL1        0.0513
     30 C         140.3914  142.3614  171.2815 C.3     1  UNL1        0.2102
@<TRIPOS>BOND
     1    29    30    1
     2    30    28    1
     3    28    20    1
     4    20    21    2
     5    20    22   am
     6    22    23    1
     7    23    24    1
     8    24    25    1
     9    25    19    1
    10    19     1    1
    11     1     2    1
    12     2     3    1
    13     3     4    1
    14     4     5    1
    15     5     6    1
    16     4     7    1
    17     7     8    1
    18     8     9    2
    19     8    10   am
    20    10    17    1
    21    17    18    1
    22    10    11    1
    23    11    12   ar
    24    12    13   ar
    25    13    14   ar
    26    14    15   ar
    27    15    16   ar
    28    25    26    1
    29    26    27    1
    30    27    22    1
    31     6     1    1
    32    16    11   ar
    33    16     4    1
@<TRIPOS>MOLECULE
*****
 30 33 0 0 0
SMALL
GASTEIGER

@<TRIPOS>ATOM
      1 N         143.2275  138.5178  163.0212 N.3     1  UNL1       -0.2727
      2 C         144.0157  139.4796  163.8600 C.3     1  UNL1        0.0724
      3 C         143.4217  140.0377  165.1193 C.3     1  UNL1        0.0220
      4 C         142.0396  139.6339  165.5397 C.3     1  UNL1        0.0329
      5 C         141.2514  138.6722  164.7008 C.3     1  UNL1        0.0220
      6 C         141.8454  138.1141  163.4416 C.3     1  UNL1        0.0724
      7 C         142.8278  140.5958  166.3786 C.3     1  UNL1        0.0898
      8 C         142.2338  141.1538  167.6378 C.2     1  UNL1        0.2307
      9 O         143.0220  142.1157  168.4767 O.2     1  UNL1       -0.2745
     10 N         140.8517  140.7501  168.0582 N.am    1  UNL1       -0.2441
     11 C         140.0635  139.7884  167.2194 C.ar    1  UNL1        0.1333
     12 N         138.6814  139.3847  167.6397 N.ar    1  UNL1       -0.2291
     13 C         137.8932  138.4228  166.8008 C.ar    1  UNL1        0.1003
     14 C         138.4872  137.8648  165.5416 C.ar    1  UNL1        0.0204
     15 C         139.8693  138.2685  165.1212 C.ar    1  UNL1        0.0001
     16 C         140.6575  139.2302  165.9600 C.ar    1  UNL1        0.0097
     17 C         140.2578  141.3083  169.3175 C.3     1  UNL1        0.0997
     18 C         140.4958  140.6193  170.6285 C.3     1  UNL1        0.0237
     19 C         143.8215  137.9597  161.7619 C.3     1  UNL1        0.0722
     20 C         142.7227  140.6134  156.4940 C.2     1  UNL1        0.4049
     21 O         142.0327  139.8529  155.4005 O.2     1  UNL1       -0.2262
     22 N         142.9974  139.9499  157.8109 N.am    1  UNL1       -0.2460
     23 C         143.6874  140.7104  158.9043 C.3     1  UNL1        0.0968
     24 C         143.9621  140.0470  160.2214 C.3     1  UNL1        0.0231
     25 C         143.5468  138.6231  160.4449 C.3     1  UNL1        0.0194
     26 C         142.8568  137.8626  159.3514 C.3     1  UNL1        0.0231
     27 C         142.5821  138.5260  158.0345 C.3     1  UNL1        0.0968
     28 O         143.1380  142.0373  156.2705 O.3     1  UNL1       -0.4345
     29 C         145.7249  141.9795  156.0357 C.3     1  UNL1        0.0513
     30 C         144.3782  142.3421  155.4835 C.3     1  UNL1        0.2102
@<TRIPOS>BOND
     1    29    30    1
     2    30    28    1
     3    28    20    1
     4    20    21    2
     5    20    22   am
     6    22    23    1
     7    23    24    1
     8    24    25    1
     9    25    19    1
    10    19     1    1
    11     1     2    1
    12     2     3    1
    13     3     4    1
    14     4     5    1
    15     5     6    1
    16     4     7    1
    17     7     8    1
    18     8     9    2
    19     8    10   am
    20    10    17    1
    21    17    18    1
    22    10    11    1
    23    11    12   ar
    24    12    13   ar
    25    13    14   ar
    26    14    15   ar
    27    15    16   ar
    28    25    26    1
    29    26    27    1
    30    27    22    1
    31     6     1    1
    32    16    11   ar
    33    16     4    1
@<TRIPOS>MOLECULE
*****
 30 33 0 0 0
SMALL
GASTEIGER

@<TRIPOS>ATOM
      1 N         142.0530  137.0847  157.1149 N.3     1  UNL1       -0.2727
      2 C         141.2457  136.9304  155.8602 C.3     1  UNL1        0.0724
      3 C         141.3623  135.6782  155.0427 C.3     1  UNL1        0.0220
      4 C         142.2862  134.5803  155.4799 C.3     1  UNL1        0.0329
      5 C         143.0935  134.7347  156.7346 C.3     1  UNL1        0.0220
      6 C         142.9769  135.9869  157.5521 C.3     1  UNL1        0.0724
      7 C         141.4788  134.4260  154.2251 C.3     1  UNL1        0.0898
      8 C         141.5954  133.1738  153.4076 C.2     1  UNL1        0.2307
      9 O         140.7880  133.0194  152.1528 O.2     1  UNL1       -0.2745
     10 N         142.5193  132.0759  153.8448 N.am    1  UNL1       -0.2441
     11 C         143.3266  132.2302  155.0995 C.ar    1  UNL1        0.1333
     12 N         144.2505  131.1324  155.5367 N.ar    1  UNL1       -0.2291
     13 C         145.0578  131.2868  156.7915 C.ar    1  UNL1        0.1003
     14 C         144.9412  132.5390  157.6090 C.ar    1  UNL1        0.0204
     15 C         144.0174  133.6368  157.1718 C.ar    1  UNL1        0.0001
     16 C         143.2100  133.4825  155.9171 C.ar    1  UNL1        0.0097
     17 C         142.6358  130.8237  153.0272 C.3     1  UNL1        0.0997
     18 C         143.7173  130.6996  151.9953 C.3     1  UNL1        0.0237
     19 C         141.9365  138.3370  157.9325 C.3     1  UNL1        0.0722
     20 C         140.3814  138.0085  163.7181 C.2     1  UNL1        0.4049
     21 O         141.4334  137.7997  164.7669 O.2     1  UNL1       -0.2262
     22 N         140.7702  138.0906  162.2717 N.am    1  UNL1       -0.2460
     23 C         139.7182  138.2994  161.2231 C.3     1  UNL1        0.0968
     24 C         140.1070  138.3815  159.7766 C.3     1  UNL1        0.0231
     25 C         141.5477  138.2549  159.3789 C.3     1  UNL1        0.0194
     26 C         142.5997  138.0461  160.4276 C.3     1  UNL1        0.0231
     27 C         142.2109  137.9640  161.8740 C.3     1  UNL1        0.0968
     28 O         138.9407  138.1352  164.1158 O.3     1  UNL1       -0.4345
     29 C         138.3142  139.0814  166.4530 C.3     1  UNL1        0.0513
     30 C         138.5337  137.9102  165.5420 C.3     1  UNL1        0.2102
@<TRIPOS>BOND
     1    29    30    1
     2    30    28    1
     3    28    20    1
     4    20    21    2
     5    20    22   am
     6    22    23    1
     7    23    24    1
     8    24    25    1
     9    25    19    1
    10    19     1    1
    11     1     2    1
    12     2     3    1
    13     3     4    1
    14     4     5    1
    15     5     6    1
    16     4     7    1
    17     7     8    1
    18     8     9    2
    19     8    10   am
    20    10    17    1
    21    17    18    1
    22    10    11    1
    23    11    12   ar
    24    12    13   ar
    25    13    14   ar
    26    14    15   ar
    27    15    16   ar
    28    25    26    1
    29    26    27    1
    30    27    22    1
    31     6     1    1
    32    16    11   ar
    33    16     4    1
@<TRIPOS>MOLECULE
*****
 30 33 0 0 0
SMALL
GASTEIGER

@<TRIPOS>ATOM
      1 N         143.0940  139.5652  163.2181 N.3     1  UNL1       -0.2727
      2 C         143.9333  140.2542  164.2528 C.3     1  UNL1        0.0724
      3 C         143.3843  140.4891  165.6288 C.3     1  UNL1        0.0220
      4 C         141.9961  140.0349  165.9701 C.3     1  UNL1        0.0329
      5 C         141.1568  139.3458  164.9354 C.3     1  UNL1        0.0220
      6 C         141.7057  139.1109  163.5594 C.3     1  UNL1        0.0724
      7 C         142.8354  140.7240  167.0049 C.3     1  UNL1        0.0898
      8 C         142.2865  140.9588  168.3809 C.2     1  UNL1        0.2307
      9 O         143.1258  141.6479  169.4158 O.2     1  UNL1       -0.2745
     10 N         140.8982  140.5046  168.7222 N.am    1  UNL1       -0.2441
     11 C         140.0589  139.8155  167.6875 C.ar    1  UNL1        0.1333
     12 N         138.6707  139.3613  168.0288 N.ar    1  UNL1       -0.2291
     13 C         137.8314  138.6722  166.9940 C.ar    1  UNL1        0.1003
     14 C         138.3803  138.4373  165.6180 C.ar    1  UNL1        0.0204
     15 C         139.7686  138.8916  165.2767 C.ar    1  UNL1        0.0001
     16 C         140.6079  139.5806  166.3114 C.ar    1  UNL1        0.0097
     17 C         140.3493  140.7395  170.0983 C.3     1  UNL1        0.0997
     18 C         139.7258  142.0598  170.4418 C.3     1  UNL1        0.0237
     19 C         143.6429  139.3303  161.8420 C.3     1  UNL1        0.0722
     20 C         143.0678  143.5555  157.6211 C.2     1  UNL1        0.4049
     21 O         143.3402  143.2222  156.1841 O.2     1  UNL1       -0.2262
     22 N         143.2116  142.4992  158.6763 N.am    1  UNL1       -0.2460
     23 C         142.9392  142.8326  160.1132 C.3     1  UNL1        0.0968
     24 C         143.0830  141.7762  161.1685 C.3     1  UNL1        0.0231
     25 C         143.4991  140.3866  160.7868 C.3     1  UNL1        0.0194
     26 C         143.7715  140.0533  159.3498 C.3     1  UNL1        0.0231
     27 C         143.6277  141.1096  158.2946 C.3     1  UNL1        0.0968
     28 O         142.6517  144.9452  158.0028 O.3     1  UNL1       -0.4345
     29 C         140.9632  146.1400  156.4307 C.3     1  UNL1        0.0513
     30 C         141.2579  145.4173  157.7116 C.3     1  UNL1        0.2102
@<TRIPOS>BOND
     1    29    30    1
     2    30    28    1
     3    28    20    1
     4    20    21    2
     5    20    22   am
     6    22    23    1
     7    23    24    1
     8    24    25    1
     9    25    19    1
    10    19     1    1
    11     1     2    1
    12     2     3    1
    13     3     4    1
    14     4     5    1
    15     5     6    1
    16     4     7    1
    17     7     8    1
    18     8     9    2
    19     8    10   am
    20    10    17    1
    21    17    18    1
    22    10    11    1
    23    11    12   ar
    24    12    13   ar
    25    13    14   ar
    26    14    15   ar
    27    15    16   ar
    28    25    26    1
    29    26    27    1
    30    27    22    1
    31     6     1    1
    32    16    11   ar
    33    16     4    1
@<TRIPOS>MOLECULE
*****
 30 33 0 0 0
SMALL
GASTEIGER

@<TRIPOS>ATOM
      1 N         143.5258  140.2293  163.4000 N.3     1  UNL1       -0.2727
      2 C         144.0346  141.1201  164.4943 C.3     1  UNL1        0.0724
      3 C         143.2491  141.2730  165.7630 C.3     1  UNL1        0.0220
      4 C         141.9549  140.5350  165.9375 C.3     1  UNL1        0.0329
      5 C         141.4462  139.6441  164.8432 C.3     1  UNL1        0.0220
      6 C         142.2316  139.4913  163.5745 C.3     1  UNL1        0.0724
      7 C         142.4637  141.4259  167.0318 C.3     1  UNL1        0.0898
      8 C         141.6783  141.5787  168.3005 C.2     1  UNL1        0.2307
      9 O         142.1870  142.4696  169.3949 O.2     1  UNL1       -0.2745
     10 N         140.3841  140.8408  168.4750 N.am    1  UNL1       -0.2441
     11 C         139.8753  139.9499  167.3807 C.ar    1  UNL1        0.1333
     12 N         138.5811  139.2119  167.5551 N.ar    1  UNL1       -0.2291
     13 C         138.0723  138.3210  166.4607 C.ar    1  UNL1        0.1003
     14 C         138.8578  138.1682  165.1920 C.ar    1  UNL1        0.0204
     15 C         140.1520  138.9062  165.0176 C.ar    1  UNL1        0.0001
     16 C         140.6607  139.7970  166.1119 C.ar    1  UNL1        0.0097
     17 C         139.5986  140.9937  169.7438 C.3     1  UNL1        0.0997
     18 C         139.9122  140.1291  170.9287 C.3     1  UNL1        0.0237
     19 C         144.3112  140.0763  162.1312 C.3     1  UNL1        0.0722
     20 C         141.5832  138.2230  157.1190 C.2     1  UNL1        0.4049
     21 O         141.0594  139.2268  156.1351 O.2     1  UNL1       -0.2262
     22 N         142.2652  138.6863  158.3720 N.am    1  UNL1       -0.2460
     23 C         142.7890  137.6825  159.3559 C.3     1  UNL1        0.0968
     24 C         143.4710  138.1459  160.6090 C.3     1  UNL1        0.0231
     25 C         143.6292  139.6130  160.8782 C.3     1  UNL1        0.0194
     26 C         143.1054  140.6168  159.8943 C.3     1  UNL1        0.0231
     27 C         142.4234  140.1535  158.6412 C.3     1  UNL1        0.0968
     28 O         141.4250  136.7558  156.8498 O.3     1  UNL1       -0.4345
     29 C         143.3511  135.0154  156.7439 C.3     1  UNL1        0.0513
     30 C         142.4698  136.0206  156.0636 C.3     1  UNL1        0.2102
@<TRIPOS>BOND
     1    29    30    1
     2    30    28    1
     3    28    20    1
     4    20    21    2
     5    20    22   am
     6    22    23    1
     7    23    24    1
     8    24    25    1
     9    25    19    1
    10    19     1    1
    11     1     2    1
    12     2     3    1
    13     3     4    1
    14     4     5    1
    15     5     6    1
    16     4     7    1
    17     7     8    1
    18     8     9    2
    19     8    10   am
    20    10    17    1
    21    17    18    1
    22    10    11    1
    23    11    12   ar
    24    12    13   ar
    25    13    14   ar
    26    14    15   ar
    27    15    16   ar
    28    25    26    1
    29    26    27    1
    30    27    22    1
    31     6     1    1
    32    16    11   ar
    33    16     4    1
