@<TRIPOS>MOLECULE
*****
 21 23 0 0 0
SMALL
GASTEIGER

@<TRIPOS>ATOM
      1 C         139.4765  140.7058  165.3685 C.ar    1  UNL1        0.0024
      2 C         138.7361  139.7701  164.4596 C.ar    1  UNL1        0.0065
      3 S         137.9677  140.5956  163.4707 S.2     1  UNL1       -0.0915
      4 C         138.2331  142.0416  163.7685 C.ar    1  UNL1        0.0289
      5 C         137.7461  143.3051  163.1231 C.ar    1  UNL1        0.0065
      6 C         138.1917  144.6366  163.6507 C.ar    1  UNL1        0.0005
      7 C         139.1242  144.7047  164.8236 C.ar    1  UNL1        0.0000
      8 C         139.6111  143.4413  165.4690 C.ar    1  UNL1        0.0002
      9 C         139.1656  142.1097  164.9414 C.ar    1  UNL1        0.0040
     10 C         141.6827  139.6355  166.2272 C.3     1  UNL1        0.0312
     11 C         140.3707  140.3077  166.5051 C.3     1  UNL1        0.1276
     12 N         139.9532  140.5815  167.9194 N.ar    1  UNL1       -0.2472
     13 C         140.3800  141.7527  168.7538 C.ar    1  UNL1        0.0970
     14 C         139.7261  141.6272  170.0978 C.ar    1  UNL1        0.0427
     15 C         138.8950  140.3786  170.0943 C.ar    1  UNL1        0.1217
     16 N         139.0354  139.7322  168.7479 N.ar    1  UNL1       -0.1674
     17 C         138.7600  138.2718  164.5276 C.3     1  UNL1        0.0500
     18 C         138.8761  137.4656  163.2680 C.3     1  UNL1        0.0774
     19 N         139.9953  137.7342  162.3061 N.3     1  UNL1       -0.2700
     20 C         139.6918  138.2109  160.9165 C.3     1  UNL1        0.0897
     21 C         141.4179  137.5261  162.7336 C.3     1  UNL1        0.0897
@<TRIPOS>BOND
     1    11    10    1
     2    11     1    1
     3     1     2   ar
     4     2    17    1
     5    17    18    1
     6    18    19    1
     7    19    20    1
     8    19    21    1
     9     2     3   ar
    10     3     4   ar
    11     4     5   ar
    12     5     6   ar
    13     6     7   ar
    14     7     8   ar
    15     8     9   ar
    16    11    12    1
    17    12    13   ar
    18    13    14   ar
    19    14    15   ar
    20    15    16   ar
    21     9     1   ar
    22    16    12   ar
    23     9     4   ar
@<TRIPOS>MOLECULE
*****
 21 23 0 0 0
SMALL
GASTEIGER

@<TRIPOS>ATOM
      1 C         140.4589  140.3876  165.6234 C.ar    1  UNL1        0.0024
      2 C         139.6051  139.3194  165.0070 C.ar    1  UNL1        0.0065
      3 S         138.4063  139.9806  164.3940 S.2     1  UNL1       -0.0915
      4 C         138.5192  141.4574  164.6316 C.ar    1  UNL1        0.0289
      5 C         137.6308  142.6055  164.2543 C.ar    1  UNL1        0.0065
      6 C         138.0110  144.0052  164.6368 C.ar    1  UNL1        0.0005
      7 C         139.2796  144.2567  165.3966 C.ar    1  UNL1        0.0000
      8 C         140.1680  143.1086  165.7739 C.ar    1  UNL1        0.0002
      9 C         139.7878  141.7089  165.3915 C.ar    1  UNL1        0.0040
     10 C         143.0545  140.2752  165.6010 C.3     1  UNL1        0.0312
     11 C         141.7561  140.1723  166.3452 C.3     1  UNL1        0.1276
     12 N         141.7551  139.8540  167.8109 N.ar    1  UNL1       -0.2472
     13 C         140.6423  140.1414  168.7748 C.ar    1  UNL1        0.0970
     14 C         141.0662  139.6575  170.1298 C.ar    1  UNL1        0.0427
     15 C         142.4409  139.0711  170.0035 C.ar    1  UNL1        0.1217
     16 N         142.8668  139.1925  168.5703 N.ar    1  UNL1       -0.1674
     17 C         139.8985  137.8484  165.0040 C.3     1  UNL1        0.0500
     18 C         141.0876  137.3224  164.2562 C.3     1  UNL1        0.0774
     19 N         141.3824  137.8184  162.8717 N.3     1  UNL1       -0.2700
     20 C         142.7716  138.2548  162.5113 C.3     1  UNL1        0.0897
     21 C         140.2882  137.8781  161.8475 C.3     1  UNL1        0.0897
@<TRIPOS>BOND
     1    11    10    1
     2    11     1    1
     3     1     2   ar
     4     2    17    1
     5    17    18    1
     6    18    19    1
     7    19    20    1
     8    19    21    1
     9     2     3   ar
    10     3     4   ar
    11     4     5   ar
    12     5     6   ar
    13     6     7   ar
    14     7     8   ar
    15     8     9   ar
    16    11    12    1
    17    12    13   ar
    18    13    14   ar
    19    14    15   ar
    20    15    16   ar
    21     9     1   ar
    22    16    12   ar
    23     9     4   ar
@<TRIPOS>MOLECULE
*****
 21 23 0 0 0
SMALL
GASTEIGER

@<TRIPOS>ATOM
      1 C         139.3632  140.7559  166.0288 C.ar    1  UNL1        0.0024
      2 C         140.2894  141.2536  167.0986 C.ar    1  UNL1        0.0065
      3 S         140.4138  142.7409  166.9489 S.2     1  UNL1       -0.0915
      4 C         139.5646  143.1624  165.7865 C.ar    1  UNL1        0.0289
      5 C         139.2987  144.5049  165.1724 C.ar    1  UNL1        0.0065
      6 C         138.3834  144.6205  163.9897 C.ar    1  UNL1        0.0005
      7 C         137.7341  143.3937  163.4210 C.ar    1  UNL1        0.0000
      8 C         138.0000  142.0513  164.0351 C.ar    1  UNL1        0.0002
      9 C         138.9152  141.9356  165.2179 C.ar    1  UNL1        0.0040
     10 C         137.9474  138.6883  166.7151 C.3     1  UNL1        0.0312
     11 C         138.9563  139.3291  165.8086 C.3     1  UNL1        0.1276
     12 N         139.5583  138.5428  164.6819 N.ar    1  UNL1       -0.2472
     13 C         140.7792  137.6756  164.7656 C.ar    1  UNL1        0.0970
     14 C         141.0205  137.0826  163.4091 C.ar    1  UNL1        0.0427
     15 C         139.9487  137.5833  162.4870 C.ar    1  UNL1        0.1217
     16 N         139.0449  138.4859  163.2737 N.ar    1  UNL1       -0.1674
     17 C         140.9713  140.4118  168.1361 C.3     1  UNL1        0.0500
     18 C         142.3964  140.6920  168.5111 C.3     1  UNL1        0.0774
     19 N         142.7065  141.4386  169.7745 N.3     1  UNL1       -0.2700
     20 C         143.8934  142.3541  169.8326 C.3     1  UNL1        0.0897
     21 C         141.8299  141.2698  170.9799 C.3     1  UNL1        0.0897
@<TRIPOS>BOND
     1    11    10    1
     2    11     1    1
     3     1     2   ar
     4     2    17    1
     5    17    18    1
     6    18    19    1
     7    19    20    1
     8    19    21    1
     9     2     3   ar
    10     3     4   ar
    11     4     5   ar
    12     5     6   ar
    13     6     7   ar
    14     7     8   ar
    15     8     9   ar
    16    11    12    1
    17    12    13   ar
    18    13    14   ar
    19    14    15   ar
    20    15    16   ar
    21     9     1   ar
    22    16    12   ar
    23     9     4   ar
@<TRIPOS>MOLECULE
*****
 21 23 0 0 0
SMALL
GASTEIGER

@<TRIPOS>ATOM
      1 C         140.3671  140.4636  165.5170 C.ar    1  UNL1        0.0024
      2 C         139.5009  139.4364  164.8503 C.ar    1  UNL1        0.0065
      3 S         138.3092  140.1402  164.2718 S.2     1  UNL1       -0.0915
      4 C         138.4390  141.6022  164.5810 C.ar    1  UNL1        0.0289
      5 C         137.5633  142.7773  164.2612 C.ar    1  UNL1        0.0065
      6 C         137.9595  144.1523  164.7111 C.ar    1  UNL1        0.0005
      7 C         139.2315  144.3522  165.4807 C.ar    1  UNL1        0.0000
      8 C         140.1071  143.1771  165.8005 C.ar    1  UNL1        0.0002
      9 C         139.7109  141.8021  165.3506 C.ar    1  UNL1        0.0040
     10 C         141.6719  139.9607  167.7068 C.3     1  UNL1        0.0312
     11 C         141.6623  140.1987  166.2258 C.3     1  UNL1        0.1276
     12 N         142.9480  140.1718  165.4537 N.ar    1  UNL1       -0.2472
     13 C         143.8224  138.9723  165.2386 C.ar    1  UNL1        0.0970
     14 C         144.9999  139.3989  164.4130 C.ar    1  UNL1        0.0427
     15 C         144.8532  140.8622  164.1178 C.ar    1  UNL1        0.1217
     16 N         143.5850  141.3400  164.7610 N.ar    1  UNL1       -0.1674
     17 C         139.7777  137.9641  164.7752 C.3     1  UNL1        0.0500
     18 C         140.6674  137.4223  163.6960 C.3     1  UNL1        0.0774
     19 N         140.7555  138.1248  162.3736 N.3     1  UNL1       -0.2700
     20 C         139.6300  138.0126  161.3883 C.3     1  UNL1        0.0897
     21 C         141.9691  138.9394  162.0365 C.3     1  UNL1        0.0897
@<TRIPOS>BOND
     1    11    10    1
     2    11     1    1
     3     1     2   ar
     4     2    17    1
     5    17    18    1
     6    18    19    1
     7    19    20    1
     8    19    21    1
     9     2     3   ar
    10     3     4   ar
    11     4     5   ar
    12     5     6   ar
    13     6     7   ar
    14     7     8   ar
    15     8     9   ar
    16    11    12    1
    17    12    13   ar
    18    13    14   ar
    19    14    15   ar
    20    15    16   ar
    21     9     1   ar
    22    16    12   ar
    23     9     4   ar
@<TRIPOS>MOLECULE
*****
 21 23 0 0 0
SMALL
GASTEIGER

@<TRIPOS>ATOM
      1 C         142.2908  140.5433  165.4784 C.ar    1  UNL1        0.0024
      2 C         143.1850  139.6175  164.7082 C.ar    1  UNL1        0.0065
      3 S         142.3930  138.3926  164.3585 S.2     1  UNL1       -0.0915
      4 C         141.0094  138.5613  164.9126 C.ar    1  UNL1        0.0289
      5 C         139.7988  137.6763  164.8763 C.ar    1  UNL1        0.0065
      6 C         138.5251  138.1206  165.5322 C.ar    1  UNL1        0.0005
      7 C         138.4619  139.4498  166.2243 C.ar    1  UNL1        0.0000
      8 C         139.6725  140.3348  166.2606 C.ar    1  UNL1        0.0002
      9 C         140.9462  139.8905  165.6048 C.ar    1  UNL1        0.0040
     10 C         142.9619  142.0448  167.4898 C.3     1  UNL1        0.0312
     11 C         142.6739  141.8861  166.0262 C.3     1  UNL1        0.1276
     12 N         142.7690  143.0703  165.1105 N.ar    1  UNL1       -0.2472
     13 C         144.0250  143.8057  164.7476 C.ar    1  UNL1        0.0970
     14 C         143.6570  144.9170  163.8098 C.ar    1  UNL1        0.0427
     15 C         142.1737  144.8684  163.5929 C.ar    1  UNL1        0.1217
     16 N         141.6248  143.7271  164.3968 N.ar    1  UNL1       -0.1674
     17 C         144.6193  139.8720  164.3505 C.3     1  UNL1        0.0500
     18 C         144.9565  140.6891  163.1387 C.3     1  UNL1        0.0774
     19 N         144.0757  140.6308  161.9259 N.3     1  UNL1       -0.2700
     20 C         144.1078  139.4259  161.0329 C.3     1  UNL1        0.0897
     21 C         143.1628  141.7772  161.6060 C.3     1  UNL1        0.0897
@<TRIPOS>BOND
     1    11    10    1
     2    11     1    1
     3     1     2   ar
     4     2    17    1
     5    17    18    1
     6    18    19    1
     7    19    20    1
     8    19    21    1
     9     2     3   ar
    10     3     4   ar
    11     4     5   ar
    12     5     6   ar
    13     6     7   ar
    14     7     8   ar
    15     8     9   ar
    16    11    12    1
    17    12    13   ar
    18    13    14   ar
    19    14    15   ar
    20    15    16   ar
    21     9     1   ar
    22    16    12   ar
    23     9     4   ar
@<TRIPOS>MOLECULE
*****
 21 23 0 0 0
SMALL
GASTEIGER

@<TRIPOS>ATOM
      1 C         140.1041  142.3207  166.0021 C.ar    1  UNL1        0.0024
      2 C         139.8261  140.9688  165.4147 C.ar    1  UNL1        0.0065
      3 S         139.7078  139.9883  166.5437 S.2     1  UNL1       -0.0915
      4 C         139.9127  140.7343  167.8289 C.ar    1  UNL1        0.0289
      5 C         139.9078  140.2871  169.2606 C.ar    1  UNL1        0.0065
      6 C         140.1479  141.2815  170.3577 C.ar    1  UNL1        0.0005
      7 C         140.3928  142.7230  170.0229 C.ar    1  UNL1        0.0000
      8 C         140.3977  143.1701  168.5911 C.ar    1  UNL1        0.0002
      9 C         140.1576  142.1758  167.4941 C.ar    1  UNL1        0.0040
     10 C         139.1377  144.5252  165.0241 C.3     1  UNL1        0.0312
     11 C         140.2951  143.5940  165.2326 C.3     1  UNL1        0.1276
     12 N         141.6434  143.9363  164.6715 N.ar    1  UNL1       -0.2472
     13 C         142.8964  143.1274  164.8319 C.ar    1  UNL1        0.0970
     14 C         144.0028  143.8388  164.1110 C.ar    1  UNL1        0.0427
     15 C         143.4337  145.0873  163.5051 C.ar    1  UNL1        0.1217
     16 N         141.9754  145.1476  163.8515 N.ar    1  UNL1       -0.1674
     17 C         139.6903  140.6528  163.9547 C.3     1  UNL1        0.0500
     18 C         138.3948  140.1178  163.4204 C.3     1  UNL1        0.0774
     19 N         138.3401  138.7423  162.8246 N.3     1  UNL1       -0.2700
     20 C         139.0449  137.6036  163.5005 C.3     1  UNL1        0.0897
     21 C         137.5807  138.5055  161.5529 C.3     1  UNL1        0.0897
@<TRIPOS>BOND
     1    11    10    1
     2    11     1    1
     3     1     2   ar
     4     2    17    1
     5    17    18    1
     6    18    19    1
     7    19    20    1
     8    19    21    1
     9     2     3   ar
    10     3     4   ar
    11     4     5   ar
    12     5     6   ar
    13     6     7   ar
    14     7     8   ar
    15     8     9   ar
    16    11    12    1
    17    12    13   ar
    18    13    14   ar
    19    14    15   ar
    20    15    16   ar
    21     9     1   ar
    22    16    12   ar
    23     9     4   ar
@<TRIPOS>MOLECULE
*****
 21 23 0 0 0
SMALL
GASTEIGER

@<TRIPOS>ATOM
      1 C         140.5117  141.9763  165.4183 C.ar    1  UNL1        0.0024
      2 C         139.4224  142.6656  164.6514 C.ar    1  UNL1        0.0065
      3 S         140.0237  143.8513  163.9567 S.2     1  UNL1       -0.0915
      4 C         141.4845  143.8947  164.2942 C.ar    1  UNL1        0.0289
      5 C         142.5791  144.8397  163.8958 C.ar    1  UNL1        0.0065
      6 C         143.9753  144.6259  164.4007 C.ar    1  UNL1        0.0005
      7 C         144.2769  143.4670  165.3040 C.ar    1  UNL1        0.0000
      8 C         143.1823  142.5220  165.7025 C.ar    1  UNL1        0.0002
      9 C         141.7861  142.7358  165.1976 C.ar    1  UNL1        0.0040
     10 C         140.5442  139.3882  165.6446 C.3     1  UNL1        0.0312
     11 C         140.3541  140.7436  166.2585 C.3     1  UNL1        0.1276
     12 N         140.0066  140.8663  167.7124 N.ar    1  UNL1       -0.2472
     13 C         140.3655  142.0124  168.6111 C.ar    1  UNL1        0.0970
     14 C         139.8197  141.7188  169.9771 C.ar    1  UNL1        0.0427
     15 C         139.1236  140.3913  169.9227 C.ar    1  UNL1        0.1217
     16 N         139.2390  139.8644  168.5230 N.ar    1  UNL1       -0.1674
     17 C         137.9843  142.2435  164.5899 C.3     1  UNL1        0.0500
     18 C         137.3327  141.9913  163.2626 C.3     1  UNL1        0.0774
     19 N         137.9507  141.0258  162.2951 N.3     1  UNL1       -0.2700
     20 C         138.3817  141.4967  160.9377 C.3     1  UNL1        0.0897
     21 C         138.1375  139.5895  162.6850 C.3     1  UNL1        0.0897
@<TRIPOS>BOND
     1    11    10    1
     2    11     1    1
     3     1     2   ar
     4     2    17    1
     5    17    18    1
     6    18    19    1
     7    19    20    1
     8    19    21    1
     9     2     3   ar
    10     3     4   ar
    11     4     5   ar
    12     5     6   ar
    13     6     7   ar
    14     7     8   ar
    15     8     9   ar
    16    11    12    1
    17    12    13   ar
    18    13    14   ar
    19    14    15   ar
    20    15    16   ar
    21     9     1   ar
    22    16    12   ar
    23     9     4   ar
@<TRIPOS>MOLECULE
*****
 21 23 0 0 0
SMALL
GASTEIGER

@<TRIPOS>ATOM
      1 C         142.3182  142.7884  165.4918 C.ar    1  UNL1        0.0024
      2 C         143.3990  143.3787  164.6353 C.ar    1  UNL1        0.0065
      3 S         142.7536  144.3042  163.6470 S.2     1  UNL1       -0.0915
      4 C         141.2739  144.2860  163.8926 C.ar    1  UNL1        0.0289
      5 C         140.1369  145.0013  163.2254 C.ar    1  UNL1        0.0065
      6 C         138.7307  144.7799  163.6983 C.ar    1  UNL1        0.0005
      7 C         138.4617  143.8431  164.8385 C.ar    1  UNL1        0.0000
      8 C         139.5988  143.1278  165.5058 C.ar    1  UNL1        0.0002
      9 C         141.0049  143.3492  165.0328 C.ar    1  UNL1        0.0040
     10 C         142.8115  140.3708  166.3053 C.3     1  UNL1        0.0312
     11 C         142.5161  141.8094  166.6108 C.3     1  UNL1        0.1276
     12 N         142.4185  142.2687  168.0354 N.ar    1  UNL1       -0.2472
     13 C         141.1510  142.5530  168.7853 C.ar    1  UNL1        0.0970
     14 C         141.5205  142.9845  170.1735 C.ar    1  UNL1        0.0427
     15 C         143.0164  142.9668  170.2817 C.ar    1  UNL1        0.1217
     16 N         143.5715  142.5244  168.9602 N.ar    1  UNL1       -0.1674
     17 C         144.8674  143.0935  164.7475 C.3     1  UNL1        0.0500
     18 C         145.4629  141.9273  164.0159 C.3     1  UNL1        0.0774
     19 N         144.8153  141.4184  162.7622 N.3     1  UNL1       -0.2700
     20 C         144.0233  140.1448  162.7909 C.3     1  UNL1        0.0897
     21 C         144.9597  142.1830  161.4798 C.3     1  UNL1        0.0897
@<TRIPOS>BOND
     1    11    10    1
     2    11     1    1
     3     1     2   ar
     4     2    17    1
     5    17    18    1
     6    18    19    1
     7    19    20    1
     8    19    21    1
     9     2     3   ar
    10     3     4   ar
    11     4     5   ar
    12     5     6   ar
    13     6     7   ar
    14     7     8   ar
    15     8     9   ar
    16    11    12    1
    17    12    13   ar
    18    13    14   ar
    19    14    15   ar
    20    15    16   ar
    21     9     1   ar
    22    16    12   ar
    23     9     4   ar
@<TRIPOS>MOLECULE
*****
 21 23 0 0 0
SMALL
GASTEIGER

@<TRIPOS>ATOM
      1 C         141.3080  141.0708  165.5828 C.ar    1  UNL1        0.0024
      2 C         139.8794  141.3670  165.2343 C.ar    1  UNL1        0.0065
      3 S         139.8300  142.7228  164.5946 S.2     1  UNL1       -0.0915
      4 C         141.2280  143.2646  164.5477 C.ar    1  UNL1        0.0289
      5 C         141.7872  144.5556  164.0278 C.ar    1  UNL1        0.0065
      6 C         143.2599  144.8257  164.1187 C.ar    1  UNL1        0.0005
      7 C         144.1733  143.8046  164.7295 C.ar    1  UNL1        0.0000
      8 C         143.6141  142.5136  165.2494 C.ar    1  UNL1        0.0002
      9 C         142.1415  142.2435  165.1585 C.ar    1  UNL1        0.0040
     10 C         142.3513  138.6981  165.4033 C.3     1  UNL1        0.0312
     11 C         141.8143  139.8212  166.2403 C.3     1  UNL1        0.1276
     12 N         141.7835  139.6946  167.7345 N.ar    1  UNL1       -0.2472
     13 C         140.6424  140.0793  168.6288 C.ar    1  UNL1        0.0970
     14 C         141.0422  139.7834  170.0439 C.ar    1  UNL1        0.0427
     15 C         142.4305  139.2159  170.0243 C.ar    1  UNL1        0.1217
     16 N         142.8887  139.1610  168.5970 N.ar    1  UNL1       -0.1674
     17 C         138.7063  140.4657  165.4820 C.3     1  UNL1        0.0500
     18 C         138.6884  139.0819  164.9035 C.3     1  UNL1        0.0774
     19 N         138.7382  138.8899  163.4167 N.3     1  UNL1       -0.2700
     20 C         139.5820  137.7975  162.8294 C.3     1  UNL1        0.0897
     21 C         137.9443  139.7902  162.5171 C.3     1  UNL1        0.0897
@<TRIPOS>BOND
     1    11    10    1
     2    11     1    1
     3     1     2   ar
     4     2    17    1
     5    17    18    1
     6    18    19    1
     7    19    20    1
     8    19    21    1
     9     2     3   ar
    10     3     4   ar
    11     4     5   ar
    12     5     6   ar
    13     6     7   ar
    14     7     8   ar
    15     8     9   ar
    16    11    12    1
    17    12    13   ar
    18    13    14   ar
    19    14    15   ar
    20    15    16   ar
    21     9     1   ar
    22    16    12   ar
    23     9     4   ar
