@<TRIPOS>MOLECULE
*****
 37 40 0 0 0
SMALL
GASTEIGER

@<TRIPOS>ATOM
      1 N         146.3751  141.3759  155.5807 N.3     1  UNL1       -0.2731
      2 C         145.7736  140.1257  155.0102 C.3     1  UNL1        0.0817
      3 C         144.7005  139.6579  155.9481 C.3     1  UNL1        0.1027
      4 C         144.6388  140.6188  157.0982 C.3     1  UNL1        0.1026
      5 C         145.6737  141.6806  156.8712 C.3     1  UNL1        0.0817
      6 C         143.8402  138.4424  155.7675 C.2     1  UNL1        0.2286
      7 O         142.3502  138.5858  155.6711 O.2     1  UNL1       -0.2747
      8 N         144.4699  137.0837  155.6833 N.am    1  UNL1       -0.2693
      9 H         145.4479  136.9896  155.7465 H       1  UNL1        0.1563
     10 C         143.6096  135.8682  155.5027 C.ar    1  UNL1        0.1342
     11 C         143.5305  134.8371  156.5892 C.ar    1  UNL1        0.0354
     12 C         142.6703  133.6217  156.4086 C.ar    1  UNL1        0.0158
     13 C         141.8891  133.4374  155.1414 C.ar    1  UNL1        0.0769
     14 CL        141.0287  132.2219  154.9608 Cl      1  UNL1       -0.0806
     15 C         141.9681  134.4684  154.0549 C.ar    1  UNL1        0.1116
     16 N         142.8284  135.6838  154.2355 N.ar    1  UNL1       -0.2281
     17 C         143.7059  140.5330  158.2697 C.2     1  UNL1        0.2276
     18 O         142.7666  141.6646  158.5650 O.2     1  UNL1       -0.2747
     19 N         143.7123  139.3155  159.1459 N.am    1  UNL1       -0.2821
     20 H         144.3288  138.5728  158.9520 H       1  UNL1        0.1549
     21 C         142.7794  139.2296  160.3174 C.ar    1  UNL1        0.0782
     22 C         141.3640  138.7752  160.1172 C.ar    1  UNL1        0.0184
     23 C         140.4311  138.6892  161.2886 C.ar    1  UNL1        0.0190
     24 C         140.9137  139.0577  162.6602 C.ar    1  UNL1        0.0692
     25 C         142.3291  139.5121  162.8604 C.ar    1  UNL1        0.0485
     26 C         143.2620  139.5980  161.6890 C.ar    1  UNL1        0.1549
     27 F         144.6775  140.0524  161.8891 F       1  UNL1       -0.2028
     28 N         139.9809  138.9717  163.8317 N.ar    1  UNL1       -0.2731
     29 C         139.6194  137.6340  164.4061 C.ar    1  UNL1        0.0829
     30 C         138.6865  137.5480  165.5776 C.ar    1  UNL1        0.0192
     31 C         138.1151  138.7998  166.1748 C.ar    1  UNL1        0.0064
     32 C         138.4766  140.1375  165.6004 C.ar    1  UNL1        0.0611
     33 C         139.4094  140.2235  164.4290 C.ar    1  UNL1        0.2648
     34 O         139.7709  141.5612  163.8546 O.2     1  UNL1       -0.2666
     35 C         147.1621  143.3561  154.0942 C.3     1  UNL1        0.0173
     36 C         147.4833  142.1801  154.9683 C.3     1  UNL1        0.0576
     37 C         148.9127  141.8084  155.2299 C.3     1  UNL1        0.0173
@<TRIPOS>BOND
     1    35    36    1
     2    36    37    1
     3    36     1    1
     4     1     2    1
     5     2     3    1
     6     3     6    1
     7     6     7    2
     8     6     8   am
     9     8    10    1
    10    10    11   ar
    11    11    12   ar
    12    12    13   ar
    13    13    14    1
    14    13    15   ar
    15    15    16   ar
    16     3     4    1
    17     4    17    1
    18    17    18    2
    19    17    19   am
    20    19    21    1
    21    21    22   ar
    22    22    23   ar
    23    23    24   ar
    24    24    28    1
    25    28    29   ar
    26    29    30   ar
    27    30    31   ar
    28    31    32   ar
    29    32    33   ar
    30    33    34    2
    31    24    25   ar
    32    25    26   ar
    33    26    27    1
    34     4     5    1
    35     5     1    1
    36    16    10   ar
    37    26    21   ar
    38    33    28   ar
    39     8     9    1
    40    19    20    1
@<TRIPOS>MOLECULE
*****
 37 40 0 0 0
SMALL
GASTEIGER

@<TRIPOS>ATOM
      1 N         146.2993  141.3713  155.6155 N.3     1  UNL1       -0.2731
      2 C         145.7040  140.0992  155.0885 C.3     1  UNL1        0.0817
      3 C         144.6650  139.6342  156.0654 C.3     1  UNL1        0.1027
      4 C         144.6182  140.6186  157.1961 C.3     1  UNL1        0.1026
      5 C         145.6282  141.6922  156.9181 C.3     1  UNL1        0.0817
      6 C         143.8210  138.4010  155.9344 C.2     1  UNL1        0.2286
      7 O         142.3435  138.4736  156.1826 O.2     1  UNL1       -0.2747
      8 N         144.4546  137.0953  155.5553 N.am    1  UNL1       -0.2693
      9 H         145.4244  137.0477  155.3924 H       1  UNL1        0.1563
     10 C         143.6106  135.8622  155.4243 C.ar    1  UNL1        0.1342
     11 C         142.7390  135.6745  154.2181 C.ar    1  UNL1        0.0354
     12 C         141.8950  134.4414  154.0872 C.ar    1  UNL1        0.0158
     13 C         141.9228  133.3959  155.1625 C.ar    1  UNL1        0.0769
     14 CL        141.0788  132.1628  155.0315 Cl      1  UNL1       -0.0806
     15 C         142.7945  133.5836  156.3687 C.ar    1  UNL1        0.1116
     16 N         143.6384  134.8167  156.4996 N.ar    1  UNL1       -0.2281
     17 C         143.7192  140.5428  158.3944 C.2     1  UNL1        0.2276
     18 O         142.9193  141.7420  158.8091 O.2     1  UNL1       -0.2747
     19 N         143.6201  139.2676  159.1782 N.am    1  UNL1       -0.2821
     20 H         144.1451  138.4805  158.9061 H       1  UNL1        0.1549
     21 C         142.7211  139.1917  160.3765 C.ar    1  UNL1        0.0782
     22 C         143.2863  139.3893  161.7518 C.ar    1  UNL1        0.0184
     23 C         142.3874  139.3133  162.9502 C.ar    1  UNL1        0.0190
     24 C         140.9232  139.0398  162.7732 C.ar    1  UNL1        0.0692
     25 C         140.3580  138.8423  161.3979 C.ar    1  UNL1        0.0485
     26 C         141.2569  138.9182  160.1995 C.ar    1  UNL1        0.1549
     27 F         140.6917  138.7207  158.8242 F       1  UNL1       -0.2028
     28 N         140.0242  138.9639  163.9716 N.ar    1  UNL1       -0.2731
     29 C         139.4381  137.6472  164.3872 C.ar    1  UNL1        0.0829
     30 C         138.5391  137.5711  165.5856 C.ar    1  UNL1        0.0192
     31 C         138.2262  138.8119  166.3683 C.ar    1  UNL1        0.0064
     32 C         138.8122  140.1286  165.9526 C.ar    1  UNL1        0.0611
     33 C         139.7112  140.2047  164.7543 C.ar    1  UNL1        0.2648
     34 O         140.2973  141.5214  164.3387 O.2     1  UNL1       -0.2666
     35 C         148.8131  141.7717  155.0953 C.3     1  UNL1        0.0173
     36 C         147.3765  142.1802  154.9558 C.3     1  UNL1        0.0576
     37 C         147.0171  143.3976  154.1567 C.3     1  UNL1        0.0173
@<TRIPOS>BOND
     1    35    36    1
     2    36    37    1
     3    36     1    1
     4     1     2    1
     5     2     3    1
     6     3     6    1
     7     6     7    2
     8     6     8   am
     9     8    10    1
    10    10    11   ar
    11    11    12   ar
    12    12    13   ar
    13    13    14    1
    14    13    15   ar
    15    15    16   ar
    16     3     4    1
    17     4    17    1
    18    17    18    2
    19    17    19   am
    20    19    21    1
    21    21    22   ar
    22    22    23   ar
    23    23    24   ar
    24    24    28    1
    25    28    29   ar
    26    29    30   ar
    27    30    31   ar
    28    31    32   ar
    29    32    33   ar
    30    33    34    2
    31    24    25   ar
    32    25    26   ar
    33    26    27    1
    34     4     5    1
    35     5     1    1
    36    16    10   ar
    37    26    21   ar
    38    33    28   ar
    39     8     9    1
    40    19    20    1
@<TRIPOS>MOLECULE
*****
 37 40 0 0 0
SMALL
GASTEIGER

@<TRIPOS>ATOM
      1 N         143.2045  135.0764  156.1861 N.3     1  UNL1       -0.2731
      2 C         143.8224  136.1399  155.3273 C.3     1  UNL1        0.0817
      3 C         143.6539  137.4562  156.0266 C.3     1  UNL1        0.1027
      4 C         142.9319  137.2063  157.3175 C.3     1  UNL1        0.1026
      5 C         142.6541  135.7356  157.4160 C.3     1  UNL1        0.0817
      6 C         144.1247  138.7886  155.5234 C.2     1  UNL1        0.2286
      7 O         143.1744  139.6951  154.7987 O.2     1  UNL1       -0.2747
      8 N         145.5459  139.2143  155.7447 N.am    1  UNL1       -0.2693
      9 H         146.1696  138.6193  156.2203 H       1  UNL1        0.1563
     10 C         146.0168  140.5466  155.2414 C.ar    1  UNL1        0.1342
     11 C         146.3818  141.6292  156.2134 C.ar    1  UNL1        0.0354
     12 C         146.8526  142.9614  155.7100 C.ar    1  UNL1        0.0158
     13 C         146.9585  143.2111  154.2348 C.ar    1  UNL1        0.0769
     14 CL        147.4294  144.5435  153.7315 Cl      1  UNL1       -0.0806
     15 C         146.5935  142.1286  153.2628 C.ar    1  UNL1        0.1116
     16 N         146.1226  140.7963  153.7661 N.ar    1  UNL1       -0.2281
     17 C         142.5540  138.2449  158.3317 C.2     1  UNL1        0.2276
     18 O         143.6192  139.0600  159.0031 O.2     1  UNL1       -0.2747
     19 N         141.1109  138.4684  158.6744 N.am    1  UNL1       -0.2821
     20 H         140.4117  137.9334  158.2337 H       1  UNL1        0.1549
     21 C         140.7329  139.5069  159.6886 C.ar    1  UNL1        0.0782
     22 C         140.3732  140.8935  159.2438 C.ar    1  UNL1        0.0184
     23 C         139.9953  141.9321  160.2579 C.ar    1  UNL1        0.0190
     24 C         139.9770  141.5840  161.7169 C.ar    1  UNL1        0.0692
     25 C         140.3368  140.1974  162.1616 C.ar    1  UNL1        0.0485
     26 C         140.7147  139.1588  161.1475 C.ar    1  UNL1        0.1549
     27 F         141.0744  137.7722  161.5923 F       1  UNL1       -0.2028
     28 N         139.5991  142.6226  162.7310 N.ar    1  UNL1       -0.2731
     29 C         140.6447  143.5428  163.2876 C.ar    1  UNL1        0.0829
     30 C         140.2669  144.5814  164.3018 C.ar    1  UNL1        0.0192
     31 C         138.8433  144.6997  164.7594 C.ar    1  UNL1        0.0064
     32 C         137.7976  143.7795  164.2029 C.ar    1  UNL1        0.0611
     33 C         138.1755  142.7409  163.1887 C.ar    1  UNL1        0.2648
     34 O         137.1298  141.8207  162.6321 O.2     1  UNL1       -0.2666
     35 C         144.3483  132.7450  156.1083 C.3     1  UNL1        0.0173
     36 C         143.1470  133.6112  155.8703 C.3     1  UNL1        0.0576
     37 C         141.8883  133.0122  155.3164 C.3     1  UNL1        0.0173
@<TRIPOS>BOND
     1    35    36    1
     2    36    37    1
     3    36     1    1
     4     1     2    1
     5     2     3    1
     6     3     6    1
     7     6     7    2
     8     6     8   am
     9     8    10    1
    10    10    11   ar
    11    11    12   ar
    12    12    13   ar
    13    13    14    1
    14    13    15   ar
    15    15    16   ar
    16     3     4    1
    17     4    17    1
    18    17    18    2
    19    17    19   am
    20    19    21    1
    21    21    22   ar
    22    22    23   ar
    23    23    24   ar
    24    24    28    1
    25    28    29   ar
    26    29    30   ar
    27    30    31   ar
    28    31    32   ar
    29    32    33   ar
    30    33    34    2
    31    24    25   ar
    32    25    26   ar
    33    26    27    1
    34     4     5    1
    35     5     1    1
    36    16    10   ar
    37    26    21   ar
    38    33    28   ar
    39     8     9    1
    40    19    20    1
@<TRIPOS>MOLECULE
*****
 37 40 0 0 0
SMALL
GASTEIGER

@<TRIPOS>ATOM
      1 N         142.9915  133.5854  156.2781 N.3     1  UNL1       -0.2731
      2 C         141.9562  134.2665  155.4328 C.3     1  UNL1        0.0817
      3 C         141.7934  135.6689  155.9395 C.3     1  UNL1        0.1027
      4 C         142.7281  135.8546  157.0980 C.3     1  UNL1        0.1026
      5 C         143.4685  134.5670  157.3072 C.3     1  UNL1        0.0817
      6 C         140.8599  136.7039  155.3851 C.2     1  UNL1        0.2286
      7 O         141.3892  137.7961  154.5036 O.2     1  UNL1       -0.2747
      8 N         139.3971  136.6467  155.7122 N.am    1  UNL1       -0.2693
      9 H         139.0498  135.9299  156.2907 H       1  UNL1        0.1563
     10 C         138.4636  137.6817  155.1577 C.ar    1  UNL1        0.1342
     11 C         137.6970  137.4030  153.8989 C.ar    1  UNL1        0.0354
     12 C         136.7635  138.4379  153.3446 C.ar    1  UNL1        0.0158
     13 C         136.5966  139.7517  154.0490 C.ar    1  UNL1        0.0769
     14 CL        135.6630  140.7867  153.4946 Cl      1  UNL1       -0.0806
     15 C         137.3631  140.0304  155.3078 C.ar    1  UNL1        0.1116
     16 N         138.2966  138.9955  155.8622 N.ar    1  UNL1       -0.2281
     17 C         142.8932  137.1079  157.9053 C.2     1  UNL1        0.2276
     18 O         143.3095  138.3832  157.2341 O.2     1  UNL1       -0.2747
     19 N         142.6422  137.0861  159.3840 N.am    1  UNL1       -0.2821
     20 H         142.3690  136.2491  159.8246 H       1  UNL1        0.1549
     21 C         142.8073  138.3394  160.1915 C.ar    1  UNL1        0.0782
     22 C         144.1170  138.6330  160.8611 C.ar    1  UNL1        0.0184
     23 C         144.2823  139.8862  161.6686 C.ar    1  UNL1        0.0190
     24 C         143.1377  140.8459  161.8064 C.ar    1  UNL1        0.0692
     25 C         141.8280  140.5522  161.1368 C.ar    1  UNL1        0.0485
     26 C         141.6627  139.2990  160.3294 C.ar    1  UNL1        0.1549
     27 F         140.3530  139.0054  159.6597 F       1  UNL1       -0.2028
     28 N         143.3028  142.0991  162.6139 N.ar    1  UNL1       -0.2731
     29 C         143.2455  142.0393  164.1116 C.ar    1  UNL1        0.0829
     30 C         143.4106  143.2926  164.9192 C.ar    1  UNL1        0.0192
     31 C         143.6331  144.6057  164.2290 C.ar    1  UNL1        0.0064
     32 C         143.6905  144.6654  162.7313 C.ar    1  UNL1        0.0611
     33 C         143.5254  143.4122  161.9237 C.ar    1  UNL1        0.2648
     34 O         143.5827  143.4720  160.4260 O.2     1  UNL1       -0.2666
     35 C         142.4847  131.0806  155.8099 C.3     1  UNL1        0.0173
     36 C         143.4663  132.1712  156.1217 C.3     1  UNL1        0.0576
     37 C         144.9227  131.8476  156.2771 C.3     1  UNL1        0.0173
@<TRIPOS>BOND
     1    35    36    1
     2    36    37    1
     3    36     1    1
     4     1     2    1
     5     2     3    1
     6     3     6    1
     7     6     7    2
     8     6     8   am
     9     8    10    1
    10    10    11   ar
    11    11    12   ar
    12    12    13   ar
    13    13    14    1
    14    13    15   ar
    15    15    16   ar
    16     3     4    1
    17     4    17    1
    18    17    18    2
    19    17    19   am
    20    19    21    1
    21    21    22   ar
    22    22    23   ar
    23    23    24   ar
    24    24    28    1
    25    28    29   ar
    26    29    30   ar
    27    30    31   ar
    28    31    32   ar
    29    32    33   ar
    30    33    34    2
    31    24    25   ar
    32    25    26   ar
    33    26    27    1
    34     4     5    1
    35     5     1    1
    36    16    10   ar
    37    26    21   ar
    38    33    28   ar
    39     8     9    1
    40    19    20    1
@<TRIPOS>MOLECULE
*****
 37 40 0 0 0
SMALL
GASTEIGER

@<TRIPOS>ATOM
      1 N         145.1461  141.2013  156.3313 N.3     1  UNL1       -0.2731
      2 C         144.3770  141.3570  157.6098 C.3     1  UNL1        0.0817
      3 C         143.5645  140.1131  157.8163 C.3     1  UNL1        0.1027
      4 C         143.8314  139.1887  156.6656 C.3     1  UNL1        0.1026
      5 C         144.8089  139.8611  155.7479 C.3     1  UNL1        0.0817
      6 C         142.6463  139.8415  158.9709 C.2     1  UNL1        0.2286
      7 O         141.7277  140.9181  159.4680 O.2     1  UNL1       -0.2747
      8 N         142.6466  138.4933  159.6284 N.am    1  UNL1       -0.2693
      9 H         143.2496  137.7867  159.3021 H       1  UNL1        0.1563
     10 C         141.7284  138.2216  160.7830 C.ar    1  UNL1        0.1342
     11 C         142.2965  137.9050  162.1347 C.ar    1  UNL1        0.0354
     12 C         141.3783  137.6334  163.2892 C.ar    1  UNL1        0.0158
     13 C         139.8919  137.6784  163.0921 C.ar    1  UNL1        0.0769
     14 CL        138.9737  137.4067  164.2468 Cl      1  UNL1       -0.0806
     15 C         139.3239  137.9950  161.7405 C.ar    1  UNL1        0.1116
     16 N         140.2421  138.2667  160.5860 N.ar    1  UNL1       -0.2281
     17 C         143.2270  137.8302  156.4676 C.2     1  UNL1        0.2276
     18 O         141.7544  137.6280  156.6687 O.2     1  UNL1       -0.2747
     19 N         144.0952  136.6740  156.0683 N.am    1  UNL1       -0.2821
     20 H         145.0617  136.8067  155.9363 H       1  UNL1        0.1549
     21 C         143.4908  135.3155  155.8702 C.ar    1  UNL1        0.0782
     22 C         143.0446  134.8851  154.5044 C.ar    1  UNL1        0.0184
     23 C         142.4403  133.5266  154.3062 C.ar    1  UNL1        0.0190
     24 C         142.2821  132.5986  155.4739 C.ar    1  UNL1        0.0692
     25 C         142.7283  133.0290  156.8398 C.ar    1  UNL1        0.0485
     26 C         143.3327  134.3874  157.0380 C.ar    1  UNL1        0.1549
     27 F         143.7789  134.8179  158.4039 F       1  UNL1       -0.2028
     28 N         141.6778  131.2401  155.2758 N.ar    1  UNL1       -0.2731
     29 C         140.2546  131.1117  154.8195 C.ar    1  UNL1        0.0829
     30 C         139.6502  129.7532  154.6214 C.ar    1  UNL1        0.0192
     31 C         140.4689  128.5231  154.8796 C.ar    1  UNL1        0.0064
     32 C         141.8920  128.6516  155.3359 C.ar    1  UNL1        0.0611
     33 C         142.4964  130.0100  155.5341 C.ar    1  UNL1        0.2648
     34 O         143.9196  130.1384  155.9904 O.2     1  UNL1       -0.2666
     35 C         147.3813  142.5219  156.4310 C.3     1  UNL1        0.0173
     36 C         146.0871  142.2088  155.7402 C.3     1  UNL1        0.0576
     37 C         145.7340  142.9031  154.4583 C.3     1  UNL1        0.0173
@<TRIPOS>BOND
     1    35    36    1
     2    36    37    1
     3    36     1    1
     4     1     2    1
     5     2     3    1
     6     3     6    1
     7     6     7    2
     8     6     8   am
     9     8    10    1
    10    10    11   ar
    11    11    12   ar
    12    12    13   ar
    13    13    14    1
    14    13    15   ar
    15    15    16   ar
    16     3     4    1
    17     4    17    1
    18    17    18    2
    19    17    19   am
    20    19    21    1
    21    21    22   ar
    22    22    23   ar
    23    23    24   ar
    24    24    28    1
    25    28    29   ar
    26    29    30   ar
    27    30    31   ar
    28    31    32   ar
    29    32    33   ar
    30    33    34    2
    31    24    25   ar
    32    25    26   ar
    33    26    27    1
    34     4     5    1
    35     5     1    1
    36    16    10   ar
    37    26    21   ar
    38    33    28   ar
    39     8     9    1
    40    19    20    1
@<TRIPOS>MOLECULE
*****
 37 40 0 0 0
SMALL
GASTEIGER

@<TRIPOS>ATOM
      1 N         137.8482  142.4055  155.8743 N.3     1  UNL1       -0.2731
      2 C         137.8711  142.4753  157.3726 C.3     1  UNL1        0.0817
      3 C         138.5279  141.2278  157.8847 C.3     1  UNL1        0.1027
      4 C         138.9110  140.3869  156.7031 C.3     1  UNL1        0.1026
      5 C         138.4909  141.1147  155.4606 C.3     1  UNL1        0.0817
      6 C         138.7608  140.8819  159.3257 C.2     1  UNL1        0.2286
      7 O         139.8500  141.5686  160.0952 O.2     1  UNL1       -0.2747
      8 N         137.9045  139.8495  159.9970 N.am    1  UNL1       -0.2693
      9 H         137.1896  139.3988  159.4919 H       1  UNL1        0.1563
     10 C         138.1373  139.5036  161.4379 C.ar    1  UNL1        0.1342
     11 C         138.6855  138.1570  161.8069 C.ar    1  UNL1        0.0354
     12 C         138.9183  137.8112  163.2478 C.ar    1  UNL1        0.0158
     13 C         138.6030  138.8120  164.3197 C.ar    1  UNL1        0.0769
     14 CL        138.8359  138.4661  165.7606 Cl      1  UNL1       -0.0806
     15 C         138.0549  140.1586  163.9507 C.ar    1  UNL1        0.1116
     16 N         137.8221  140.5044  162.5098 N.ar    1  UNL1       -0.2281
     17 C         139.5941  139.0526  156.7550 C.2     1  UNL1        0.2276
     18 O         139.2492  138.0750  157.8391 O.2     1  UNL1       -0.2747
     19 N         140.6223  138.6958  155.7227 N.am    1  UNL1       -0.2821
     20 H         140.8487  139.3374  155.0112 H       1  UNL1        0.1549
     21 C         141.3056  137.3614  155.7745 C.ar    1  UNL1        0.0782
     22 C         140.6369  136.1532  155.1887 C.ar    1  UNL1        0.0184
     23 C         141.3200  134.8189  155.2405 C.ar    1  UNL1        0.0190
     24 C         142.6719  134.6927  155.8780 C.ar    1  UNL1        0.0692
     25 C         143.3406  135.9009  156.4638 C.ar    1  UNL1        0.0485
     26 C         142.6574  137.2353  156.4121 C.ar    1  UNL1        0.1549
     27 F         143.3261  138.4434  156.9979 F       1  UNL1       -0.2028
     28 N         143.3551  133.3584  155.9298 N.ar    1  UNL1       -0.2731
     29 C         143.3124  132.4472  154.7391 C.ar    1  UNL1        0.0829
     30 C         143.9956  131.1128  154.7907 C.ar    1  UNL1        0.0192
     31 C         144.7216  130.6896  156.0333 C.ar    1  UNL1        0.0064
     32 C         144.7643  131.6007  157.2241 C.ar    1  UNL1        0.0611
     33 C         144.0811  132.9351  157.1724 C.ar    1  UNL1        0.2648
     34 O         144.1238  133.8462  158.3631 O.2     1  UNL1       -0.2666
     35 C         137.6800  144.8819  155.1067 C.3     1  UNL1        0.0173
     36 C         137.2821  143.4439  154.9518 C.3     1  UNL1        0.0576
     37 C         136.3180  143.0444  153.8743 C.3     1  UNL1        0.0173
@<TRIPOS>BOND
     1    35    36    1
     2    36    37    1
     3    36     1    1
     4     1     2    1
     5     2     3    1
     6     3     6    1
     7     6     7    2
     8     6     8   am
     9     8    10    1
    10    10    11   ar
    11    11    12   ar
    12    12    13   ar
    13    13    14    1
    14    13    15   ar
    15    15    16   ar
    16     3     4    1
    17     4    17    1
    18    17    18    2
    19    17    19   am
    20    19    21    1
    21    21    22   ar
    22    22    23   ar
    23    23    24   ar
    24    24    28    1
    25    28    29   ar
    26    29    30   ar
    27    30    31   ar
    28    31    32   ar
    29    32    33   ar
    30    33    34    2
    31    24    25   ar
    32    25    26   ar
    33    26    27    1
    34     4     5    1
    35     5     1    1
    36    16    10   ar
    37    26    21   ar
    38    33    28   ar
    39     8     9    1
    40    19    20    1
@<TRIPOS>MOLECULE
*****
 37 40 0 0 0
SMALL
GASTEIGER

@<TRIPOS>ATOM
      1 N         143.0370  136.2808  156.7950 N.3     1  UNL1       -0.2731
      2 C         142.8646  137.6694  156.2543 C.3     1  UNL1        0.0817
      3 C         142.5636  138.5813  157.4066 C.3     1  UNL1        0.1027
      4 C         142.5499  137.7564  158.6594 C.3     1  UNL1        0.1026
      5 C         142.8425  136.3346  158.2814 C.3     1  UNL1        0.0817
      6 C         142.3191  140.0588  157.3211 C.2     1  UNL1        0.2286
      7 O         143.4693  140.9983  157.1105 O.2     1  UNL1       -0.2747
      8 N         140.9245  140.5967  157.4462 N.am    1  UNL1       -0.2693
      9 H         140.1696  139.9801  157.5845 H       1  UNL1        0.1563
     10 C         140.6800  142.0743  157.3607 C.ar    1  UNL1        0.1342
     11 C         140.6589  142.7548  156.0242 C.ar    1  UNL1        0.0354
     12 C         140.4144  144.2323  155.9387 C.ar    1  UNL1        0.0158
     13 C         140.1911  145.0291  157.1897 C.ar    1  UNL1        0.0769
     14 CL        139.9466  146.5067  157.1042 Cl      1  UNL1       -0.0806
     15 C         140.2122  144.3486  158.5263 C.ar    1  UNL1        0.1116
     16 N         140.4567  142.8711  158.6117 N.ar    1  UNL1       -0.2281
     17 C         142.2894  138.2642  160.0465 C.2     1  UNL1        0.2276
     18 O         141.4739  139.5067  160.2496 O.2     1  UNL1       -0.2747
     19 N         142.8443  137.5295  161.2307 N.am    1  UNL1       -0.2821
     20 H         143.3795  136.7140  161.0975 H       1  UNL1        0.1549
     21 C         142.5838  138.0372  162.6179 C.ar    1  UNL1        0.0782
     22 C         141.4369  137.4890  163.4142 C.ar    1  UNL1        0.0184
     23 C         141.1764  137.9966  164.8014 C.ar    1  UNL1        0.0190
     24 C         142.0627  139.0526  165.3923 C.ar    1  UNL1        0.0692
     25 C         143.2096  139.6009  164.5960 C.ar    1  UNL1        0.0485
     26 C         143.4702  139.0932  163.2088 C.ar    1  UNL1        0.1549
     27 F         144.6170  139.6415  162.4126 F       1  UNL1       -0.2028
     28 N         141.8022  139.5604  166.7795 N.ar    1  UNL1       -0.2731
     29 C         140.6832  140.5284  167.0260 C.ar    1  UNL1        0.0829
     30 C         140.4227  141.0362  168.4133 C.ar    1  UNL1        0.0192
     31 C         141.2812  140.5759  169.5539 C.ar    1  UNL1        0.0064
     32 C         142.4002  139.6079  169.3074 C.ar    1  UNL1        0.0611
     33 C         142.6607  139.1001  167.9203 C.ar    1  UNL1        0.2648
     34 O         143.7797  138.1321  167.6737 O.2     1  UNL1       -0.2666
     35 C         142.9927  135.0010  154.5344 C.3     1  UNL1        0.0173
     36 C         143.3491  135.0538  155.9905 C.3     1  UNL1        0.0576
     37 C         144.0177  133.8798  156.6421 C.3     1  UNL1        0.0173
@<TRIPOS>BOND
     1    35    36    1
     2    36    37    1
     3    36     1    1
     4     1     2    1
     5     2     3    1
     6     3     6    1
     7     6     7    2
     8     6     8   am
     9     8    10    1
    10    10    11   ar
    11    11    12   ar
    12    12    13   ar
    13    13    14    1
    14    13    15   ar
    15    15    16   ar
    16     3     4    1
    17     4    17    1
    18    17    18    2
    19    17    19   am
    20    19    21    1
    21    21    22   ar
    22    22    23   ar
    23    23    24   ar
    24    24    28    1
    25    28    29   ar
    26    29    30   ar
    27    30    31   ar
    28    31    32   ar
    29    32    33   ar
    30    33    34    2
    31    24    25   ar
    32    25    26   ar
    33    26    27    1
    34     4     5    1
    35     5     1    1
    36    16    10   ar
    37    26    21   ar
    38    33    28   ar
    39     8     9    1
    40    19    20    1
@<TRIPOS>MOLECULE
*****
 37 40 0 0 0
SMALL
GASTEIGER

@<TRIPOS>ATOM
      1 N         146.6766  141.8012  154.8599 N.3     1  UNL1       -0.2731
      2 C         145.9285  140.5740  154.4301 C.3     1  UNL1        0.0817
      3 C         145.0639  140.1338  155.5741 C.3     1  UNL1        0.1027
      4 C         145.2776  141.0888  156.7109 C.3     1  UNL1        0.1026
      5 C         146.2742  142.1193  156.2696 C.3     1  UNL1        0.0817
      6 C         144.1467  138.9469  155.5802 C.2     1  UNL1        0.2286
      7 O         142.6749  139.1376  155.7976 O.2     1  UNL1       -0.2747
      8 N         144.7013  137.5693  155.3687 N.am    1  UNL1       -0.2693
      9 H         145.6674  137.4442  155.2260 H       1  UNL1        0.1563
     10 C         143.7841  136.3824  155.3748 C.ar    1  UNL1        0.1342
     11 C         142.7909  136.1964  154.2662 C.ar    1  UNL1        0.0354
     12 C         141.8738  135.0095  154.2723 C.ar    1  UNL1        0.0158
     13 C         141.9498  134.0087  155.3869 C.ar    1  UNL1        0.0769
     14 CL        141.0326  132.8217  155.3930 Cl      1  UNL1       -0.0806
     15 C         142.9429  134.1947  156.4955 C.ar    1  UNL1        0.1116
     16 N         143.8601  135.3815  156.4894 N.ar    1  UNL1       -0.2281
     17 C         144.6115  141.0245  158.0533 C.2     1  UNL1        0.2276
     18 O         144.2576  139.6956  158.6522 O.2     1  UNL1       -0.2747
     19 N         144.2992  142.2893  158.7970 N.am    1  UNL1       -0.2821
     20 H         144.5314  143.1615  158.4039 H       1  UNL1        0.1549
     21 C         143.6331  142.2251  160.1394 C.ar    1  UNL1        0.0782
     22 C         144.4312  142.4722  161.3852 C.ar    1  UNL1        0.0184
     23 C         143.7651  142.4080  162.7277 C.ar    1  UNL1        0.0190
     24 C         142.3010  142.0968  162.8243 C.ar    1  UNL1        0.0692
     25 C         141.5029  141.8498  161.5785 C.ar    1  UNL1        0.0485
     26 C         142.1689  141.9140  160.2360 C.ar    1  UNL1        0.1549
     27 F         141.3708  141.6670  158.9902 F       1  UNL1       -0.2028
     28 N         141.6349  142.0327  164.1667 N.ar    1  UNL1       -0.2731
     29 C         140.8569  143.2101  164.6750 C.ar    1  UNL1        0.0829
     30 C         140.1907  143.1461  166.0175 C.ar    1  UNL1        0.0192
     31 C         140.3026  141.9045  166.8517 C.ar    1  UNL1        0.0064
     32 C         141.0806  140.7270  166.3434 C.ar    1  UNL1        0.0611
     33 C         141.7467  140.7911  165.0010 C.ar    1  UNL1        0.2648
     34 O         142.5247  139.6136  164.4928 O.2     1  UNL1       -0.2666
     35 C         147.2194  143.8288  153.3289 C.3     1  UNL1        0.0173
     36 C         147.6551  142.5744  154.0265 C.3     1  UNL1        0.0576
     37 C         149.0693  142.0932  153.8907 C.3     1  UNL1        0.0173
@<TRIPOS>BOND
     1    35    36    1
     2    36    37    1
     3    36     1    1
     4     1     2    1
     5     2     3    1
     6     3     6    1
     7     6     7    2
     8     6     8   am
     9     8    10    1
    10    10    11   ar
    11    11    12   ar
    12    12    13   ar
    13    13    14    1
    14    13    15   ar
    15    15    16   ar
    16     3     4    1
    17     4    17    1
    18    17    18    2
    19    17    19   am
    20    19    21    1
    21    21    22   ar
    22    22    23   ar
    23    23    24   ar
    24    24    28    1
    25    28    29   ar
    26    29    30   ar
    27    30    31   ar
    28    31    32   ar
    29    32    33   ar
    30    33    34    2
    31    24    25   ar
    32    25    26   ar
    33    26    27    1
    34     4     5    1
    35     5     1    1
    36    16    10   ar
    37    26    21   ar
    38    33    28   ar
    39     8     9    1
    40    19    20    1
@<TRIPOS>MOLECULE
*****
 37 40 0 0 0
SMALL
GASTEIGER

@<TRIPOS>ATOM
      1 N         139.9663  146.3489  156.0110 N.3     1  UNL1       -0.2731
      2 C         140.1824  144.9340  155.5621 C.3     1  UNL1        0.0817
      3 C         140.3637  144.0827  156.7837 C.3     1  UNL1        0.1027
      4 C         140.2596  144.9714  157.9876 C.3     1  UNL1        0.1026
      5 C         140.0140  146.3720  157.5101 C.3     1  UNL1        0.0817
      6 C         140.6064  142.6025  156.7988 C.2     1  UNL1        0.2286
      7 O         139.4956  141.6568  156.4497 O.2     1  UNL1       -0.2747
      8 N         141.9598  142.0681  157.1628 N.am    1  UNL1       -0.2693
      9 H         142.6888  142.6888  157.3919 H       1  UNL1        0.1563
     10 C         142.2026  140.5879  157.1778 C.ar    1  UNL1        0.1342
     11 C         142.9471  139.9385  156.0492 C.ar    1  UNL1        0.0354
     12 C         143.1898  138.4584  156.0643 C.ar    1  UNL1        0.0158
     13 C         142.6880  137.6277  157.2079 C.ar    1  UNL1        0.0769
     14 CL        142.9307  136.1475  157.2230 Cl      1  UNL1       -0.0806
     15 C         141.9434  138.2771  158.3366 C.ar    1  UNL1        0.1116
     16 N         141.7007  139.7572  158.3215 N.ar    1  UNL1       -0.2281
     17 C         140.3799  144.5359  159.4179 C.2     1  UNL1        0.2276
     18 O         141.5427  144.9954  160.2466 O.2     1  UNL1       -0.2747
     19 N         139.3374  143.6408  160.0197 N.am    1  UNL1       -0.2821
     20 H         138.5742  143.3392  159.4758 H       1  UNL1        0.1549
     21 C         139.4577  143.2052  161.4500 C.ar    1  UNL1        0.0782
     22 C         138.4907  143.7200  162.4746 C.ar    1  UNL1        0.0184
     23 C         138.6109  143.2845  163.9049 C.ar    1  UNL1        0.0190
     24 C         139.6982  142.3341  164.3106 C.ar    1  UNL1        0.0692
     25 C         140.6652  141.8193  163.2860 C.ar    1  UNL1        0.0485
     26 C         140.5450  142.2548  161.8557 C.ar    1  UNL1        0.1549
     27 F         141.5120  141.7400  160.8311 F       1  UNL1       -0.2028
     28 N         139.8185  141.8986  165.7409 N.ar    1  UNL1       -0.2731
     29 C         140.4285  142.8188  166.7563 C.ar    1  UNL1        0.0829
     30 C         140.5489  142.3833  168.1867 C.ar    1  UNL1        0.0192
     31 C         140.0591  141.0275  168.6016 C.ar    1  UNL1        0.0064
     32 C         139.4491  140.1073  167.5862 C.ar    1  UNL1        0.0611
     33 C         139.3288  140.5428  166.1559 C.ar    1  UNL1        0.2648
     34 O         138.7187  139.6226  165.1404 O.2     1  UNL1       -0.2666
     35 C         138.8111  148.6289  155.5448 C.3     1  UNL1        0.0173
     36 C         139.7419  147.5328  155.1177 C.3     1  UNL1        0.0576
     37 C         140.4482  147.6207  153.7974 C.3     1  UNL1        0.0173
@<TRIPOS>BOND
     1    35    36    1
     2    36    37    1
     3    36     1    1
     4     1     2    1
     5     2     3    1
     6     3     6    1
     7     6     7    2
     8     6     8   am
     9     8    10    1
    10    10    11   ar
    11    11    12   ar
    12    12    13   ar
    13    13    14    1
    14    13    15   ar
    15    15    16   ar
    16     3     4    1
    17     4    17    1
    18    17    18    2
    19    17    19   am
    20    19    21    1
    21    21    22   ar
    22    22    23   ar
    23    23    24   ar
    24    24    28    1
    25    28    29   ar
    26    29    30   ar
    27    30    31   ar
    28    31    32   ar
    29    32    33   ar
    30    33    34    2
    31    24    25   ar
    32    25    26   ar
    33    26    27    1
    34     4     5    1
    35     5     1    1
    36    16    10   ar
    37    26    21   ar
    38    33    28   ar
    39     8     9    1
    40    19    20    1
