@<TRIPOS>MOLECULE
*****
 32 37 0 0 0
SMALL
GASTEIGER

@<TRIPOS>ATOM
      1 C         144.0759  130.6274  154.5275 C.2     1  UNL1       -0.0198
      2 C         144.8506  131.0676  155.7342 C.2     1  UNL1       -0.0042
      3 C         144.5287  132.3744  156.3965 C.2     1  UNL1        0.0006
      4 C         143.4322  133.2411  155.8520 C.2     1  UNL1        0.0111
      5 C         142.8927  134.5706  156.2895 C.2     1  UNL1       -0.0044
      6 C         141.7847  134.9521  155.3532 C.2     1  UNL1        0.0689
      7 N         141.6393  133.8585  154.3370 N.2     1  UNL1       -0.2526
      8 C         142.6576  132.8010  154.6453 C.2     1  UNL1        0.0627
      9 C         142.9794  131.4941  153.9831 C.3     1  UNL1        0.0717
     10 C         141.0512  136.2462  155.5469 C.3     1  UNL1        0.0947
     11 N         141.4258  137.1587  156.6770 N.3     1  UNL1       -0.2887
     12 C         142.5339  136.7772  157.6133 C.3     1  UNL1        0.1161
     13 C         143.2673  135.4831  157.4195 C.3     1  UNL1        0.0510
     14 H         140.5884  137.2815  157.2463 H       1  UNL1        0.1239
     15 C         139.9432  136.6277  154.6107 C.3     1  UNL1        0.0202
     16 C         138.6798  137.2301  155.1498 C.3     1  UNL1        0.0017
     17 C         137.5717  137.6117  154.2135 C.3     1  UNL1        0.0001
     18 C         137.7271  137.3907  152.7381 C.3     1  UNL1        0.0000
     19 C         138.9905  136.7883  152.1989 C.3     1  UNL1        0.0001
     20 C         140.0986  136.4067  153.1352 C.3     1  UNL1        0.0017
     21 C         142.9085  137.6897  158.7434 C.ar    1  UNL1        0.1318
     22 N         142.7802  137.3809  160.2056 N.ar    1  UNL1       -0.2298
     23 C         143.2696  138.5716  160.9755 C.ar    1  UNL1        0.0997
     24 C         143.7004  139.6163  159.9891 C.ar    1  UNL1        0.0927
     25 N         143.4772  139.0712  158.6096 N.ar    1  UNL1       -0.3386
     26 H         143.6701  139.5383  157.7647 H       1  UNL1        0.1672
     27 C         143.3195  138.6957  162.4695 C.ar    1  UNL1        0.0223
     28 C         142.2214  138.1113  163.3077 C.ar    1  UNL1        0.0222
     29 C         142.2712  138.2354  164.8017 C.ar    1  UNL1        0.0989
     30 N         143.4191  138.9440  165.4576 N.ar    1  UNL1       -0.2423
     31 C         144.5172  139.5285  164.6194 C.ar    1  UNL1        0.0989
     32 C         144.4674  139.4044  163.1253 C.ar    1  UNL1        0.0222
@<TRIPOS>BOND
     1     1     2    2
     2     2     3    1
     3     3     4    2
     4     4     5    1
     5     5     6    2
     6     6     7    1
     7     7     8    2
     8     8     9    1
     9     6    10    1
    10    10    15    1
    11    15    16    1
    12    16    17    1
    13    17    18    1
    14    18    19    1
    15    19    20    1
    16    10    11    1
    17    11    12    1
    18    12    21    1
    19    21    22   ar
    20    22    23   ar
    21    23    27    1
    22    27    28   ar
    23    28    29   ar
    24    29    30   ar
    25    30    31   ar
    26    31    32   ar
    27    23    24   ar
    28    24    25   ar
    29    12    13    1
    30     9     1    1
    31    20    15    1
    32    25    21   ar
    33     8     4    1
    34    32    27   ar
    35    13     5    1
    36    11    14    1
    37    25    26    1
@<TRIPOS>MOLECULE
*****
 32 37 0 0 0
SMALL
GASTEIGER

@<TRIPOS>ATOM
      1 C         140.3030  145.7343  158.0744 C.2     1  UNL1       -0.0198
      2 C         140.1302  144.8695  156.8611 C.2     1  UNL1       -0.0042
      3 C         140.7338  143.4967  156.8264 C.2     1  UNL1        0.0006
      4 C         141.5101  142.9888  158.0050 C.2     1  UNL1        0.0111
      5 C         142.2145  141.6889  158.2583 C.2     1  UNL1       -0.0044
      6 C         142.8226  141.7503  159.6281 C.2     1  UNL1        0.0689
      7 N         142.4941  143.0882  160.2215 N.2     1  UNL1       -0.2526
      8 C         141.6829  143.8536  159.2183 C.2     1  UNL1        0.0627
      9 C         141.0794  145.2264  159.2530 C.3     1  UNL1        0.0717
     10 C         143.5969  140.5800  160.1581 C.3     1  UNL1        0.0947
     11 N         143.7631  139.3482  159.3183 N.3     1  UNL1       -0.2887
     12 C         143.1549  139.2868  157.9485 C.3     1  UNL1        0.1161
     13 C         142.3806  140.4572  157.4184 C.3     1  UNL1        0.0510
     14 H         143.3679  138.5732  159.8509 H       1  UNL1        0.1239
     15 C         144.2049  140.6415  161.5279 C.3     1  UNL1        0.0202
     16 C         145.0069  141.8404  161.9394 C.3     1  UNL1        0.0017
     17 C         145.6150  141.9019  163.3092 C.3     1  UNL1        0.0001
     18 C         145.4212  140.7643  164.2676 C.3     1  UNL1        0.0000
     19 C         144.6192  139.5654  163.8561 C.3     1  UNL1        0.0001
     20 C         144.0111  139.5039  162.4862 C.3     1  UNL1        0.0017
     21 C         143.3211  138.0551  157.1087 C.ar    1  UNL1        0.1318
     22 N         142.6781  136.7234  157.3598 N.ar    1  UNL1       -0.2298
     23 C         143.1191  135.7841  156.2766 C.ar    1  UNL1        0.0997
     24 C         144.0346  136.5353  155.3559 C.ar    1  UNL1        0.0927
     25 N         144.1594  137.9389  155.8702 N.ar    1  UNL1       -0.3386
     26 H         144.6971  138.6576  155.4659 H       1  UNL1        0.1672
     27 C         142.7154  134.3461  156.1383 C.ar    1  UNL1        0.0223
     28 C         143.4021  133.2924  156.9557 C.ar    1  UNL1        0.0222
     29 C         142.9985  131.8544  156.8174 C.ar    1  UNL1        0.0989
     30 N         141.9081  131.4700  155.8618 N.ar    1  UNL1       -0.2423
     31 C         141.2214  132.5237  155.0443 C.ar    1  UNL1        0.0989
     32 C         141.6251  133.9617  155.1826 C.ar    1  UNL1        0.0222
@<TRIPOS>BOND
     1     1     2    2
     2     2     3    1
     3     3     4    2
     4     4     5    1
     5     5     6    2
     6     6     7    1
     7     7     8    2
     8     8     9    1
     9     6    10    1
    10    10    15    1
    11    15    16    1
    12    16    17    1
    13    17    18    1
    14    18    19    1
    15    19    20    1
    16    10    11    1
    17    11    12    1
    18    12    21    1
    19    21    22   ar
    20    22    23   ar
    21    23    27    1
    22    27    28   ar
    23    28    29   ar
    24    29    30   ar
    25    30    31   ar
    26    31    32   ar
    27    23    24   ar
    28    24    25   ar
    29    12    13    1
    30     9     1    1
    31    20    15    1
    32    25    21   ar
    33     8     4    1
    34    32    27   ar
    35    13     5    1
    36    11    14    1
    37    25    26    1
@<TRIPOS>MOLECULE
*****
 32 37 0 0 0
SMALL
GASTEIGER

@<TRIPOS>ATOM
      1 C         142.7751  137.6315  160.1344 C.2     1  UNL1       -0.0198
      2 C         142.7375  138.0407  158.6918 C.2     1  UNL1       -0.0042
      3 C         142.1359  139.3581  158.3012 C.2     1  UNL1        0.0006
      4 C         141.5720  140.2664  159.3533 C.2     1  UNL1        0.0111
      5 C         140.9204  141.6150  159.2708 C.2     1  UNL1       -0.0044
      6 C         140.5554  142.0393  160.6625 C.2     1  UNL1        0.0689
      7 N         140.9813  140.9530  161.6051 N.2     1  UNL1       -0.2526
      8 C         141.6097  139.8573  160.7959 C.2     1  UNL1        0.0627
      9 C         142.2112  138.5399  161.1865 C.3     1  UNL1        0.0717
     10 C         139.8822  143.3601  160.8916 C.3     1  UNL1        0.0947
     11 N         139.5741  144.2565  159.7290 N.3     1  UNL1       -0.2887
     12 C         139.9392  143.8322  158.3373 C.3     1  UNL1        0.1161
     13 C         140.6124  142.5113  158.1083 C.3     1  UNL1        0.0510
     14 H         140.0539  145.1397  159.9029 H       1  UNL1        0.1239
     15 C         139.5172  143.7844  162.2831 C.3     1  UNL1        0.0202
     16 C         140.5729  144.3171  163.2061 C.3     1  UNL1        0.0017
     17 C         140.2078  144.7415  164.5977 C.3     1  UNL1        0.0001
     18 C         138.7871  144.6331  165.0664 C.3     1  UNL1        0.0000
     19 C         137.7314  144.1004  164.1435 C.3     1  UNL1        0.0001
     20 C         138.0965  143.6761  162.7519 C.3     1  UNL1        0.0017
     21 C         139.6311  144.7286  157.1748 C.ar    1  UNL1        0.1318
     22 N         139.7229  146.2257  157.1672 N.ar    1  UNL1       -0.2298
     23 C         139.3257  146.7076  155.8034 C.ar    1  UNL1        0.0997
     24 C         138.9884  145.5082  154.9680 C.ar    1  UNL1        0.0927
     25 N         139.1772  144.2852  155.8156 N.ar    1  UNL1       -0.3386
     26 H         139.0292  143.3547  155.5300 H       1  UNL1        0.1672
     27 C         139.2747  148.1377  155.3538 C.ar    1  UNL1        0.0223
     28 C         139.9720  148.5527  154.0923 C.ar    1  UNL1        0.0222
     29 C         139.9211  149.9827  153.6428 C.ar    1  UNL1        0.0989
     30 N         139.1728  150.9980  154.4547 N.ar    1  UNL1       -0.2423
     31 C         138.4754  150.5831  155.7163 C.ar    1  UNL1        0.0989
     32 C         138.5264  149.1529  156.1659 C.ar    1  UNL1        0.0222
@<TRIPOS>BOND
     1     1     2    2
     2     2     3    1
     3     3     4    2
     4     4     5    1
     5     5     6    2
     6     6     7    1
     7     7     8    2
     8     8     9    1
     9     6    10    1
    10    10    15    1
    11    15    16    1
    12    16    17    1
    13    17    18    1
    14    18    19    1
    15    19    20    1
    16    10    11    1
    17    11    12    1
    18    12    21    1
    19    21    22   ar
    20    22    23   ar
    21    23    27    1
    22    27    28   ar
    23    28    29   ar
    24    29    30   ar
    25    30    31   ar
    26    31    32   ar
    27    23    24   ar
    28    24    25   ar
    29    12    13    1
    30     9     1    1
    31    20    15    1
    32    25    21   ar
    33     8     4    1
    34    32    27   ar
    35    13     5    1
    36    11    14    1
    37    25    26    1
@<TRIPOS>MOLECULE
*****
 32 37 0 0 0
SMALL
GASTEIGER

@<TRIPOS>ATOM
      1 C         144.6880  143.1915  164.1581 C.2     1  UNL1       -0.0198
      2 C         145.1630  141.7915  163.9048 C.2     1  UNL1       -0.0042
      3 C         144.8623  141.1225  162.5964 C.2     1  UNL1        0.0006
      4 C         144.0864  141.8536  161.5412 C.2     1  UNL1        0.0111
      5 C         143.6421  141.4552  160.1650 C.2     1  UNL1       -0.0044
      6 C         142.8924  142.6090  159.5677 C.2     1  UNL1        0.0689
      7 N         142.8734  143.7205  160.5747 N.2     1  UNL1       -0.2526
      8 C         143.6114  143.2537  161.7944 C.2     1  UNL1        0.0627
      9 C         143.9122  143.9226  163.1029 C.3     1  UNL1        0.0717
     10 C         142.3239  142.4983  158.1841 C.3     1  UNL1        0.0947
     11 N         142.5050  141.2339  157.3976 N.3     1  UNL1       -0.2887
     12 C         143.2547  140.0801  157.9949 C.3     1  UNL1        0.1161
     13 C         143.8233  140.1908  159.3787 C.3     1  UNL1        0.0510
     14 H         142.9924  141.4887  156.5386 H       1  UNL1        0.1239
     15 C         141.5742  143.6521  157.5868 C.3     1  UNL1        0.0202
     16 C         142.2526  144.9788  157.4146 C.3     1  UNL1        0.0017
     17 C         141.5029  146.1326  156.8173 C.3     1  UNL1        0.0001
     18 C         140.0748  145.9596  156.3923 C.3     1  UNL1        0.0000
     19 C         139.3964  144.6329  156.5645 C.3     1  UNL1        0.0001
     20 C         140.1461  143.4791  157.1618 C.3     1  UNL1        0.0017
     21 C         143.4359  138.8157  157.2086 C.ar    1  UNL1        0.1318
     22 N         142.8659  137.4723  157.5555 N.ar    1  UNL1       -0.2298
     23 C         143.2967  136.4990  156.4985 C.ar    1  UNL1        0.0997
     24 C         144.1329  137.2409  155.4983 C.ar    1  UNL1        0.0927
     25 N         144.2190  138.6726  155.9372 N.ar    1  UNL1       -0.3386
     26 H         144.7042  139.3922  155.4724 H       1  UNL1        0.1672
     27 C         142.9518  135.0400  156.4502 C.ar    1  UNL1        0.0223
     28 C         143.6796  134.0677  157.3305 C.ar    1  UNL1        0.0222
     29 C         143.3347  132.6088  157.2822 C.ar    1  UNL1        0.0989
     30 N         142.2620  132.1219  156.3537 N.ar    1  UNL1       -0.2423
     31 C         141.5341  133.0942  155.4733 C.ar    1  UNL1        0.0989
     32 C         141.8790  134.5533  155.5216 C.ar    1  UNL1        0.0222
@<TRIPOS>BOND
     1     1     2    2
     2     2     3    1
     3     3     4    2
     4     4     5    1
     5     5     6    2
     6     6     7    1
     7     7     8    2
     8     8     9    1
     9     6    10    1
    10    10    15    1
    11    15    16    1
    12    16    17    1
    13    17    18    1
    14    18    19    1
    15    19    20    1
    16    10    11    1
    17    11    12    1
    18    12    21    1
    19    21    22   ar
    20    22    23   ar
    21    23    27    1
    22    27    28   ar
    23    28    29   ar
    24    29    30   ar
    25    30    31   ar
    26    31    32   ar
    27    23    24   ar
    28    24    25   ar
    29    12    13    1
    30     9     1    1
    31    20    15    1
    32    25    21   ar
    33     8     4    1
    34    32    27   ar
    35    13     5    1
    36    11    14    1
    37    25    26    1
@<TRIPOS>MOLECULE
*****
 32 37 0 0 0
SMALL
GASTEIGER

@<TRIPOS>ATOM
      1 C         137.6412  142.1357  163.9832 C.2     1  UNL1       -0.0198
      2 C         137.8627  140.6657  163.7832 C.2     1  UNL1       -0.0042
      3 C         138.2301  140.1402  162.4272 C.2     1  UNL1        0.0006
      4 C         138.3759  141.0846  161.2711 C.2     1  UNL1        0.0111
      5 C         138.7261  140.8605  159.8299 C.2     1  UNL1       -0.0044
      6 C         138.7211  142.1919  159.1391 C.2     1  UNL1        0.0689
      7 N         138.3678  143.2390  160.1533 N.2     1  UNL1       -0.2526
      8 C         138.1544  142.5546  161.4710 C.2     1  UNL1        0.0627
      9 C         137.7871  143.0802  162.8270 C.3     1  UNL1        0.0717
     10 C         139.0389  142.2788  157.6757 C.3     1  UNL1        0.0947
     11 N         139.3618  141.0342  156.9031 N.3     1  UNL1       -0.2887
     12 C         139.3668  139.7027  157.5939 C.3     1  UNL1        0.1161
     13 C         139.0490  139.6159  159.0574 C.3     1  UNL1        0.0510
     14 H         140.2937  141.1653  156.5096 H       1  UNL1        0.1239
     15 C         139.0339  143.6102  156.9849 C.3     1  UNL1        0.0202
     16 C         138.0590  143.8763  155.8764 C.3     1  UNL1        0.0017
     17 C         138.0540  145.2078  155.1856 C.3     1  UNL1        0.0001
     18 C         139.0238  146.2731  155.6032 C.3     1  UNL1        0.0000
     19 C         139.9987  146.0070  156.7117 C.3     1  UNL1        0.0001
     20 C         140.0037  144.6755  157.4026 C.3     1  UNL1        0.0017
     21 C         139.6897  138.4582  156.8214 C.ar    1  UNL1        0.1318
     22 N         140.8878  137.5792  157.0262 N.ar    1  UNL1       -0.2298
     23 C         140.8096  136.4519  156.0398 C.ar    1  UNL1        0.0997
     24 C         139.5633  136.6341  155.2253 C.ar    1  UNL1        0.0927
     25 N         138.8711  137.8741  155.7084 N.ar    1  UNL1       -0.3386
     26 H         138.0277  138.2403  155.3567 H       1  UNL1        0.1672
     27 C         141.8034  135.3378  155.8935 C.ar    1  UNL1        0.0223
     28 C         141.6791  134.3662  154.7576 C.ar    1  UNL1        0.0222
     29 C         142.6728  133.2522  154.6114 C.ar    1  UNL1        0.0989
     30 N         143.7910  133.1098  155.6010 N.ar    1  UNL1       -0.2423
     31 C         143.9154  134.0815  156.7370 C.ar    1  UNL1        0.0989
     32 C         142.9216  135.1955  156.8832 C.ar    1  UNL1        0.0222
@<TRIPOS>BOND
     1     1     2    2
     2     2     3    1
     3     3     4    2
     4     4     5    1
     5     5     6    2
     6     6     7    1
     7     7     8    2
     8     8     9    1
     9     6    10    1
    10    10    15    1
    11    15    16    1
    12    16    17    1
    13    17    18    1
    14    18    19    1
    15    19    20    1
    16    10    11    1
    17    11    12    1
    18    12    21    1
    19    21    22   ar
    20    22    23   ar
    21    23    27    1
    22    27    28   ar
    23    28    29   ar
    24    29    30   ar
    25    30    31   ar
    26    31    32   ar
    27    23    24   ar
    28    24    25   ar
    29    12    13    1
    30     9     1    1
    31    20    15    1
    32    25    21   ar
    33     8     4    1
    34    32    27   ar
    35    13     5    1
    36    11    14    1
    37    25    26    1
@<TRIPOS>MOLECULE
*****
 32 37 0 0 0
SMALL
GASTEIGER

@<TRIPOS>ATOM
      1 C         138.0791  138.2925  166.9745 C.2     1  UNL1       -0.0198
      2 C         138.0196  137.3654  165.7968 C.2     1  UNL1       -0.0042
      3 C         138.8370  137.6544  164.5728 C.2     1  UNL1        0.0006
      4 C         139.7139  138.8705  164.5263 C.2     1  UNL1        0.0111
      5 C         140.6258  139.4105  163.4648 C.2     1  UNL1       -0.0044
      6 C         141.2488  140.6713  163.9864 C.2     1  UNL1        0.0689
      7 N         140.7220  140.9106  165.3703 N.2     1  UNL1       -0.2526
      8 C         139.7733  139.7976  165.7039 C.2     1  UNL1        0.0627
      9 C         138.9559  139.5086  166.9280 C.3     1  UNL1        0.0717
     10 C         142.2154  141.4386  163.1338 C.3     1  UNL1        0.0947
     11 N         142.5590  140.9451  161.7596 N.3     1  UNL1       -0.2887
     12 C         141.9360  139.6842  161.2380 C.3     1  UNL1        0.1161
     13 C         140.9693  138.9169  162.0906 C.3     1  UNL1        0.0510
     14 H         143.5690  140.8038  161.7414 H       1  UNL1        0.1239
     15 C         142.8384  142.6994  163.6554 C.3     1  UNL1        0.0202
     16 C         143.8705  142.6323  164.7418 C.3     1  UNL1        0.0017
     17 C         144.4935  143.8932  165.2634 C.3     1  UNL1        0.0001
     18 C         144.0846  145.2212  164.6986 C.3     1  UNL1        0.0000
     19 C         143.0526  145.2883  163.6121 C.3     1  UNL1        0.0001
     20 C         142.4295  144.0274  163.0905 C.3     1  UNL1        0.0017
     21 C         142.2795  139.1906  159.8638 C.ar    1  UNL1        0.1318
     22 N         141.8465  137.8870  159.2614 N.ar    1  UNL1       -0.2298
     23 C         142.4158  137.8048  157.8760 C.ar    1  UNL1        0.0997
     24 C         143.2006  139.0576  157.6223 C.ar    1  UNL1        0.0927
     25 N         143.1164  139.9141  158.8508 N.ar    1  UNL1       -0.3386
     26 H         143.5367  140.7962  158.9711 H       1  UNL1        0.1672
     27 C         142.2323  136.6691  156.9134 C.ar    1  UNL1        0.0223
     28 C         143.1829  135.5089  156.9324 C.ar    1  UNL1        0.0222
     29 C         142.9995  134.3733  155.9699 C.ar    1  UNL1        0.0989
     30 N         141.8656  134.3976  154.9883 N.ar    1  UNL1       -0.2423
     31 C         140.9149  135.5579  154.9693 C.ar    1  UNL1        0.0989
     32 C         141.0983  136.6936  155.9319 C.ar    1  UNL1        0.0222
@<TRIPOS>BOND
     1     1     2    2
     2     2     3    1
     3     3     4    2
     4     4     5    1
     5     5     6    2
     6     6     7    1
     7     7     8    2
     8     8     9    1
     9     6    10    1
    10    10    15    1
    11    15    16    1
    12    16    17    1
    13    17    18    1
    14    18    19    1
    15    19    20    1
    16    10    11    1
    17    11    12    1
    18    12    21    1
    19    21    22   ar
    20    22    23   ar
    21    23    27    1
    22    27    28   ar
    23    28    29   ar
    24    29    30   ar
    25    30    31   ar
    26    31    32   ar
    27    23    24   ar
    28    24    25   ar
    29    12    13    1
    30     9     1    1
    31    20    15    1
    32    25    21   ar
    33     8     4    1
    34    32    27   ar
    35    13     5    1
    36    11    14    1
    37    25    26    1
@<TRIPOS>MOLECULE
*****
 32 37 0 0 0
SMALL
GASTEIGER

@<TRIPOS>ATOM
      1 C         140.6810  145.4833  160.3077 C.2     1  UNL1       -0.0198
      2 C         141.2620  145.1886  158.9566 C.2     1  UNL1       -0.0042
      3 C         141.5986  143.7771  158.5766 C.2     1  UNL1        0.0006
      4 C         141.3542  142.6603  159.5476 C.2     1  UNL1        0.0111
      5 C         141.5844  141.1810  159.4547 C.2     1  UNL1       -0.0044
      6 C         141.1456  140.5614  160.7484 C.2     1  UNL1        0.0689
      7 N         140.6443  141.6578  161.6409 N.2     1  UNL1       -0.2526
      8 C         140.7732  142.9550  160.8987 C.2     1  UNL1        0.0627
      9 C         140.4366  144.3665  161.2788 C.3     1  UNL1        0.0717
     10 C         141.2593  139.0789  160.9465 C.3     1  UNL1        0.0947
     11 N         141.8118  138.2160  159.8509 N.3     1  UNL1       -0.2887
     12 C         142.2505  138.8356  158.5572 C.3     1  UNL1        0.1161
     13 C         142.1368  140.3182  158.3591 C.3     1  UNL1        0.0510
     14 H         141.0892  137.5339  159.6206 H       1  UNL1        0.1239
     15 C         140.8206  138.4594  162.2401 C.3     1  UNL1        0.0202
     16 C         139.3622  138.2298  162.5051 C.3     1  UNL1        0.0017
     17 C         138.9234  137.6101  163.7988 C.3     1  UNL1        0.0001
     18 C         139.9431  137.2201  164.8275 C.3     1  UNL1        0.0000
     19 C         141.4015  137.4497  164.5624 C.3     1  UNL1        0.0001
     20 C         141.8403  138.0694  163.2687 C.3     1  UNL1        0.0017
     21 C         142.8030  137.9727  157.4617 C.ar    1  UNL1        0.1318
     22 N         142.5186  136.5138  157.2601 N.ar    1  UNL1       -0.2298
     23 C         143.2767  136.0567  156.0492 C.ar    1  UNL1        0.0997
     24 C         144.0296  137.2331  155.5023 C.ar    1  UNL1        0.0927
     25 N         143.7368  138.4173  156.3753 N.ar    1  UNL1       -0.3386
     26 H         144.0948  139.3266  156.2561 H       1  UNL1        0.1672
     27 C         143.2810  134.6671  155.4843 C.ar    1  UNL1        0.0223
     28 C         142.5165  134.3652  154.2296 C.ar    1  UNL1        0.0222
     29 C         142.5208  132.9757  153.6648 C.ar    1  UNL1        0.0989
     30 N         143.2897  131.8880  154.3545 N.ar    1  UNL1       -0.2423
     31 C         144.0543  132.1900  155.6093 C.ar    1  UNL1        0.0989
     32 C         144.0499  133.5795  156.1741 C.ar    1  UNL1        0.0222
@<TRIPOS>BOND
     1     1     2    2
     2     2     3    1
     3     3     4    2
     4     4     5    1
     5     5     6    2
     6     6     7    1
     7     7     8    2
     8     8     9    1
     9     6    10    1
    10    10    15    1
    11    15    16    1
    12    16    17    1
    13    17    18    1
    14    18    19    1
    15    19    20    1
    16    10    11    1
    17    11    12    1
    18    12    21    1
    19    21    22   ar
    20    22    23   ar
    21    23    27    1
    22    27    28   ar
    23    28    29   ar
    24    29    30   ar
    25    30    31   ar
    26    31    32   ar
    27    23    24   ar
    28    24    25   ar
    29    12    13    1
    30     9     1    1
    31    20    15    1
    32    25    21   ar
    33     8     4    1
    34    32    27   ar
    35    13     5    1
    36    11    14    1
    37    25    26    1
@<TRIPOS>MOLECULE
*****
 32 37 0 0 0
SMALL
GASTEIGER

@<TRIPOS>ATOM
      1 C         137.8563  138.3862  167.3719 C.2     1  UNL1       -0.0198
      2 C         137.7557  137.3351  166.3065 C.2     1  UNL1       -0.0042
      3 C         138.4912  137.5078  165.0107 C.2     1  UNL1        0.0006
      4 C         139.3274  138.7316  164.7803 C.2     1  UNL1        0.0111
      5 C         140.1593  139.1737  163.6131 C.2     1  UNL1       -0.0044
      6 C         140.7741  140.4979  163.9570 C.2     1  UNL1        0.0689
      7 N         140.3222  140.8744  165.3369 N.2     1  UNL1       -0.2526
      8 C         139.4280  139.7827  165.8457 C.2     1  UNL1        0.0627
      9 C         138.6925  139.6099  167.1415 C.3     1  UNL1        0.0717
     10 C         141.6661  141.1899  162.9694 C.3     1  UNL1        0.0947
     11 N         141.9433  140.5577  161.6376 N.3     1  UNL1       -0.2887
     12 C         141.3285  139.2334  161.2936 C.3     1  UNL1        0.1161
     13 C         140.4365  138.5414  162.2814 C.3     1  UNL1        0.0510
     14 H         142.9542  140.4387  161.5728 H       1  UNL1        0.1239
     15 C         142.2808  142.5141  163.3133 C.3     1  UNL1        0.0202
     16 C         143.6046  142.5664  164.0169 C.3     1  UNL1        0.0017
     17 C         144.2194  143.8907  164.3609 C.3     1  UNL1        0.0001
     18 C         143.5105  145.1627  164.0013 C.3     1  UNL1        0.0000
     19 C         142.1868  145.1105  163.2978 C.3     1  UNL1        0.0001
     20 C         141.5719  143.7862  162.9538 C.3     1  UNL1        0.0017
     21 C         141.6056  138.6011  159.9619 C.ar    1  UNL1        0.1318
     22 N         140.6211  138.4360  158.8423 N.ar    1  UNL1       -0.2298
     23 C         141.3230  137.7557  157.7045 C.ar    1  UNL1        0.0997
     24 C         142.7413  137.5004  158.1208 C.ar    1  UNL1        0.0927
     25 N         142.9159  138.0229  159.5160 N.ar    1  UNL1       -0.3386
     26 H         143.7450  137.9917  160.0460 H       1  UNL1        0.1672
     27 C         140.7136  137.3943  156.3823 C.ar    1  UNL1        0.0223
     28 C         139.3776  137.9548  155.9940 C.ar    1  UNL1        0.0222
     29 C         138.7682  137.5934  154.6720 C.ar    1  UNL1        0.0989
     30 N         139.4947  136.6714  153.7381 N.ar    1  UNL1       -0.2423
     31 C         140.8308  136.1109  154.1264 C.ar    1  UNL1        0.0989
     32 C         141.4402  136.4723  155.4486 C.ar    1  UNL1        0.0222
@<TRIPOS>BOND
     1     1     2    2
     2     2     3    1
     3     3     4    2
     4     4     5    1
     5     5     6    2
     6     6     7    1
     7     7     8    2
     8     8     9    1
     9     6    10    1
    10    10    15    1
    11    15    16    1
    12    16    17    1
    13    17    18    1
    14    18    19    1
    15    19    20    1
    16    10    11    1
    17    11    12    1
    18    12    21    1
    19    21    22   ar
    20    22    23   ar
    21    23    27    1
    22    27    28   ar
    23    28    29   ar
    24    29    30   ar
    25    30    31   ar
    26    31    32   ar
    27    23    24   ar
    28    24    25   ar
    29    12    13    1
    30     9     1    1
    31    20    15    1
    32    25    21   ar
    33     8     4    1
    34    32    27   ar
    35    13     5    1
    36    11    14    1
    37    25    26    1
@<TRIPOS>MOLECULE
*****
 32 37 0 0 0
SMALL
GASTEIGER

@<TRIPOS>ATOM
      1 C         135.3474  141.0563  154.6573 C.2     1  UNL1       -0.0198
      2 C         135.9172  140.3624  155.8588 C.2     1  UNL1       -0.0042
      3 C         136.9698  141.0384  156.6865 C.2     1  UNL1        0.0006
      4 C         137.4527  142.4084  156.3125 C.2     1  UNL1        0.0111
      5 C         138.4719  143.3175  156.9328 C.2     1  UNL1       -0.0044
      6 C         138.5320  144.5733  156.1147 C.2     1  UNL1        0.0689
      7 N         137.5500  144.4403  154.9886 N.2     1  UNL1       -0.2526
      8 C         136.8830  143.1023  155.1109 C.2     1  UNL1        0.0627
      9 C         135.8303  142.4263  154.2833 C.3     1  UNL1        0.0717
     10 C         139.4733  145.6755  156.5007 C.3     1  UNL1        0.0947
     11 N         140.3544  145.5221  157.7050 N.3     1  UNL1       -0.2887
     12 C         140.2942  144.2663  158.5232 C.3     1  UNL1        0.1161
     13 C         139.3529  143.1640  158.1371 C.3     1  UNL1        0.0510
     14 H         140.1312  146.2939  158.3334 H       1  UNL1        0.1239
     15 C         139.5334  146.9313  155.6826 C.3     1  UNL1        0.0202
     16 C         140.2887  146.9466  154.3867 C.3     1  UNL1        0.0017
     17 C         140.3489  148.2024  153.5685 C.3     1  UNL1        0.0001
     18 C         139.6538  149.4428  154.0462 C.3     1  UNL1        0.0000
     19 C         138.8986  149.4275  155.3421 C.3     1  UNL1        0.0001
     20 C         138.8384  148.1717  156.1603 C.3     1  UNL1        0.0017
     21 C         141.1752  144.1128  159.7274 C.ar    1  UNL1        0.1318
     22 N         141.8909  142.8616  160.1426 N.ar    1  UNL1       -0.2298
     23 C         142.6533  143.1591  161.3997 C.ar    1  UNL1        0.0997
     24 C         142.4087  144.5941  161.7615 C.ar    1  UNL1        0.0927
     25 N         141.4953  145.1835  160.7280 N.ar    1  UNL1       -0.3386
     26 H         141.1639  146.1104  160.7096 H       1  UNL1        0.1672
     27 C         143.5098  142.1914  162.1613 C.ar    1  UNL1        0.0223
     28 C         144.6754  142.6910  162.9623 C.ar    1  UNL1        0.0222
     29 C         145.5319  141.7234  163.7238 C.ar    1  UNL1        0.0989
     30 N         145.2229  140.2561  163.6845 N.ar    1  UNL1       -0.2423
     31 C         144.0571  139.7565  162.8834 C.ar    1  UNL1        0.0989
     32 C         143.2006  140.7242  162.1219 C.ar    1  UNL1        0.0222
@<TRIPOS>BOND
     1     1     2    2
     2     2     3    1
     3     3     4    2
     4     4     5    1
     5     5     6    2
     6     6     7    1
     7     7     8    2
     8     8     9    1
     9     6    10    1
    10    10    15    1
    11    15    16    1
    12    16    17    1
    13    17    18    1
    14    18    19    1
    15    19    20    1
    16    10    11    1
    17    11    12    1
    18    12    21    1
    19    21    22   ar
    20    22    23   ar
    21    23    27    1
    22    27    28   ar
    23    28    29   ar
    24    29    30   ar
    25    30    31   ar
    26    31    32   ar
    27    23    24   ar
    28    24    25   ar
    29    12    13    1
    30     9     1    1
    31    20    15    1
    32    25    21   ar
    33     8     4    1
    34    32    27   ar
    35    13     5    1
    36    11    14    1
    37    25    26    1
