@<TRIPOS>MOLECULE
*****
 33 37 0 0 0
SMALL
GASTEIGER

@<TRIPOS>ATOM
      1 C         142.9500  142.2411  165.3785 C.ar    1  UNL1        0.0291
      2 C         142.2397  141.4192  164.3442 C.ar    1  UNL1        0.0053
      3 C         142.7689  141.3578  162.9420 C.ar    1  UNL1        0.0352
      4 C         144.0083  142.1183  162.5741 C.ar    1  UNL1        0.0850
      5 C         144.7187  142.9402  163.6084 C.ar    1  UNL1        0.0488
      6 C         144.1895  143.0016  165.0106 C.ar    1  UNL1        0.1416
      7 F         144.8999  143.8235  166.0450 F       1  UNL1       -0.2041
      8 N         144.5375  142.0569  161.1718 N.ar    1  UNL1       -0.2422
      9 C         143.8272  141.2350  160.1375 C.ar    1  UNL1        0.1175
     10 C         142.5877  140.4745  160.5054 C.ar    1  UNL1        0.0989
     11 C         142.0585  140.5359  161.9075 C.ar    1  UNL1        0.0826
     12 N         140.8244  139.6860  161.9749 N.ar    1  UNL1       -0.2817
     13 C         140.5908  139.0993  160.6143 C.ar    1  UNL1        0.3316
     14 O         139.4650  138.1857  160.2295 O.2     1  UNL1       -0.2463
     15 N         141.6806  139.5866  159.7061 N.ar    1  UNL1       -0.2765
     16 C         141.8360  139.2459  158.2535 C.3     1  UNL1        0.1352
     17 C         141.3627  142.4254  169.5852 C.ar    1  UNL1        0.0888
     18 C         140.4407  142.6572  168.4249 C.ar    1  UNL1        0.0173
     19 C         140.9699  142.5958  167.0227 C.ar    1  UNL1        0.0029
     20 C         142.4209  142.3025  166.7808 C.ar    1  UNL1        0.0213
     21 C         143.3428  142.0707  167.9411 C.ar    1  UNL1        0.0986
     22 N         142.8137  142.1321  169.3433 N.ar    1  UNL1       -0.2457
     23 C         140.8336  142.4868  170.9875 C.3     1  UNL1        0.1876
     24 C         140.2030  139.9673  170.9212 C.3     1  UNL1        0.1747
     25 O         140.4532  141.2237  171.7015 O.3     1  UNL1       -0.3447
     26 C         139.9733  139.4621  163.1896 C.3     1  UNL1        0.0900
     27 C         139.0087  140.5209  163.6352 C.3     1  UNL1        0.0252
     28 C         138.1576  140.2970  164.8499 C.3     1  UNL1        0.0315
     29 C         138.2711  139.0142  165.6190 C.3     1  UNL1        0.1155
     30 C         139.2357  137.9554  165.1735 C.3     1  UNL1        0.0315
     31 C         140.0868  138.1793  163.9588 C.3     1  UNL1        0.0252
     32 O         137.4200  138.7903  166.8337 O.3     1  UNL1       -0.3536
     33 C         137.1225  137.3939  167.2941 C.3     1  UNL1        0.1740
@<TRIPOS>BOND
     1    24    25    1
     2    25    23    1
     3    23    17    1
     4    17    18   ar
     5    18    19   ar
     6    19    20   ar
     7    20     1    1
     8     1     2   ar
     9     2     3   ar
    10     3     4   ar
    11     4     5   ar
    12     5     6   ar
    13     6     7    1
    14     4     8   ar
    15     8     9   ar
    16     9    10   ar
    17    10    11   ar
    18    11    12   ar
    19    26    12    1
    20    26    27    1
    21    27    28    1
    22    28    29    1
    23    29    32    1
    24    32    33    1
    25    29    30    1
    26    30    31    1
    27    12    13   ar
    28    13    14    2
    29    13    15   ar
    30    15    16    1
    31    20    21   ar
    32    21    22   ar
    33    22    17   ar
    34     6     1   ar
    35    15    10   ar
    36    11     3   ar
    37    31    26    1
@<TRIPOS>MOLECULE
*****
 33 37 0 0 0
SMALL
GASTEIGER

@<TRIPOS>ATOM
      1 C         140.1203  138.8869  163.8263 C.ar    1  UNL1        0.0291
      2 C         140.8838  139.6912  164.8362 C.ar    1  UNL1        0.0053
      3 C         140.3734  139.8096  166.2417 C.ar    1  UNL1        0.0352
      4 C         139.0995  139.1236  166.6372 C.ar    1  UNL1        0.0850
      5 C         138.3359  138.3193  165.6273 C.ar    1  UNL1        0.0488
      6 C         138.8464  138.2009  164.2218 C.ar    1  UNL1        0.1416
      7 F         138.0828  137.3965  163.2118 F       1  UNL1       -0.2041
      8 N         138.5890  139.2420  168.0428 N.ar    1  UNL1       -0.2422
      9 C         139.3526  140.0463  169.0527 C.ar    1  UNL1        0.1175
     10 C         140.6265  140.7323  168.6572 C.ar    1  UNL1        0.0989
     11 C         141.1370  140.6140  167.2517 C.ar    1  UNL1        0.0826
     12 N         142.4134  141.3957  167.1547 N.ar    1  UNL1       -0.2817
     13 C         142.6919  141.9972  168.5003 C.ar    1  UNL1        0.3316
     14 O         143.8683  142.8577  168.8550 O.2     1  UNL1       -0.2463
     15 N         141.5876  141.5872  169.4289 N.ar    1  UNL1       -0.2765
     16 C         141.4656  141.9657  170.8753 C.3     1  UNL1        0.1352
     17 C         141.6515  138.5318  159.6096 C.ar    1  UNL1        0.0888
     18 C         142.4169  137.9107  160.7403 C.ar    1  UNL1        0.0173
     19 C         141.9065  138.0291  162.1459 C.ar    1  UNL1        0.0029
     20 C         140.6307  138.7685  162.4207 C.ar    1  UNL1        0.0213
     21 C         139.8653  139.3896  161.2901 C.ar    1  UNL1        0.0986
     22 N         140.3757  139.2712  159.8846 N.ar    1  UNL1       -0.2457
     23 C         142.1619  138.4134  158.2041 C.3     1  UNL1        0.1876
     24 C         142.6686  136.2573  156.8460 C.3     1  UNL1        0.1747
     25 O         143.0963  137.2990  157.8369 O.3     1  UNL1       -0.3447
     26 C         143.2624  141.5490  165.9276 C.3     1  UNL1        0.0900
     27 C         143.4287  142.8985  165.2944 C.3     1  UNL1        0.0252
     28 C         144.2776  143.0518  164.0673 C.3     1  UNL1        0.0315
     29 C         144.9603  141.8554  163.4734 C.3     1  UNL1        0.1155
     30 C         144.7940  140.5059  164.1066 C.3     1  UNL1        0.0315
     31 C         143.9451  140.3526  165.3337 C.3     1  UNL1        0.0252
     32 O         145.8092  142.0088  162.2463 O.3     1  UNL1       -0.3536
     33 C         145.1901  142.4640  160.9580 C.3     1  UNL1        0.1740
@<TRIPOS>BOND
     1    24    25    1
     2    25    23    1
     3    23    17    1
     4    17    18   ar
     5    18    19   ar
     6    19    20   ar
     7    20     1    1
     8     1     2   ar
     9     2     3   ar
    10     3     4   ar
    11     4     5   ar
    12     5     6   ar
    13     6     7    1
    14     4     8   ar
    15     8     9   ar
    16     9    10   ar
    17    10    11   ar
    18    11    12   ar
    19    26    12    1
    20    26    27    1
    21    27    28    1
    22    28    29    1
    23    29    32    1
    24    32    33    1
    25    29    30    1
    26    30    31    1
    27    12    13   ar
    28    13    14    2
    29    13    15   ar
    30    15    16    1
    31    20    21   ar
    32    21    22   ar
    33    22    17   ar
    34     6     1   ar
    35    15    10   ar
    36    11     3   ar
    37    31    26    1
@<TRIPOS>MOLECULE
*****
 33 37 0 0 0
SMALL
GASTEIGER

@<TRIPOS>ATOM
      1 C         142.7984  142.3615  165.2902 C.ar    1  UNL1        0.0291
      2 C         141.7975  141.9748  164.2420 C.ar    1  UNL1        0.0053
      3 C         141.8116  142.6541  162.9048 C.ar    1  UNL1        0.0352
      4 C         142.8266  143.7201  162.6157 C.ar    1  UNL1        0.0850
      5 C         143.8275  144.1067  163.6638 C.ar    1  UNL1        0.0488
      6 C         143.8134  143.4274  165.0011 C.ar    1  UNL1        0.1416
      7 F         144.8143  143.8141  166.0493 F       1  UNL1       -0.2041
      8 N         142.8406  144.3993  161.2783 N.ar    1  UNL1       -0.2422
      9 C         141.8397  144.0127  160.2302 C.ar    1  UNL1        0.1175
     10 C         140.8247  142.9468  160.5193 C.ar    1  UNL1        0.0989
     11 C         140.8106  142.2675  161.8565 C.ar    1  UNL1        0.0826
     12 N         139.6994  141.2600  161.8531 N.ar    1  UNL1       -0.2817
     13 C         139.0267  141.3166  160.5136 C.ar    1  UNL1        0.3316
     14 O         137.8628  140.4779  160.0753 O.2     1  UNL1       -0.2463
     15 N         139.7222  142.3591  159.6893 N.ar    1  UNL1       -0.2765
     16 C         139.3759  142.7460  158.2819 C.3     1  UNL1        0.1352
     17 C         142.7562  140.3236  169.3022 C.ar    1  UNL1        0.0888
     18 C         142.9510  141.8085  169.2172 C.ar    1  UNL1        0.0173
     19 C         142.9651  142.4878  167.8799 C.ar    1  UNL1        0.0029
     20 C         142.7843  141.6822  166.6276 C.ar    1  UNL1        0.0213
     21 C         142.5895  140.1973  166.7125 C.ar    1  UNL1        0.0986
     22 N         142.5755  139.5180  168.0498 N.ar    1  UNL1       -0.2457
     23 C         142.7422  139.6443  170.6394 C.3     1  UNL1        0.1876
     24 C         143.6077  137.1950  170.5998 C.3     1  UNL1        0.1747
     25 O         143.7977  138.6340  170.9785 O.3     1  UNL1       -0.3447
     26 C         139.3264  140.3548  162.9895 C.3     1  UNL1        0.0900
     27 C         139.7129  138.9060  162.9524 C.3     1  UNL1        0.0252
     28 C         139.3399  138.0008  164.0888 C.3     1  UNL1        0.0315
     29 C         138.5803  138.5445  165.2624 C.3     1  UNL1        0.1155
     30 C         138.1937  139.9934  165.2995 C.3     1  UNL1        0.0315
     31 C         138.5667  140.8985  164.1631 C.3     1  UNL1        0.0252
     32 O         138.2072  137.6394  166.3988 O.3     1  UNL1       -0.3536
     33 C         137.1689  138.0709  167.3918 C.3     1  UNL1        0.1740
@<TRIPOS>BOND
     1    24    25    1
     2    25    23    1
     3    23    17    1
     4    17    18   ar
     5    18    19   ar
     6    19    20   ar
     7    20     1    1
     8     1     2   ar
     9     2     3   ar
    10     3     4   ar
    11     4     5   ar
    12     5     6   ar
    13     6     7    1
    14     4     8   ar
    15     8     9   ar
    16     9    10   ar
    17    10    11   ar
    18    11    12   ar
    19    26    12    1
    20    26    27    1
    21    27    28    1
    22    28    29    1
    23    29    32    1
    24    32    33    1
    25    29    30    1
    26    30    31    1
    27    12    13   ar
    28    13    14    2
    29    13    15   ar
    30    15    16    1
    31    20    21   ar
    32    21    22   ar
    33    22    17   ar
    34     6     1   ar
    35    15    10   ar
    36    11     3   ar
    37    31    26    1
@<TRIPOS>MOLECULE
*****
 33 37 0 0 0
SMALL
GASTEIGER

@<TRIPOS>ATOM
      1 C         139.8389  143.2775  164.7687 C.ar    1  UNL1        0.0291
      2 C         140.7952  142.9604  163.6574 C.ar    1  UNL1        0.0053
      3 C         140.7170  143.7139  162.3628 C.ar    1  UNL1        0.0352
      4 C         139.6824  144.7845  162.1795 C.ar    1  UNL1        0.0850
      5 C         138.7261  145.1015  163.2907 C.ar    1  UNL1        0.0488
      6 C         138.8044  144.3480  164.5853 C.ar    1  UNL1        0.1416
      7 F         137.8481  144.6651  165.6967 F       1  UNL1       -0.2041
      8 N         139.6042  145.5380  160.8848 N.ar    1  UNL1       -0.2422
      9 C         140.5605  145.2210  159.7735 C.ar    1  UNL1        0.1175
     10 C         141.5951  144.1504  159.9569 C.ar    1  UNL1        0.0989
     11 C         141.6733  143.3969  161.2515 C.ar    1  UNL1        0.0826
     12 N         142.7906  142.4021  161.1421 N.ar    1  UNL1       -0.2817
     13 C         143.4029  142.5408  159.7798 C.ar    1  UNL1        0.3316
     14 O         144.5524  141.7397  159.2440 O.2     1  UNL1       -0.2463
     15 N         142.6640  143.6213  159.0473 N.ar    1  UNL1       -0.2765
     16 C         142.9448  144.0904  157.6504 C.3     1  UNL1        0.1352
     17 C         140.0736  141.0169  168.6527 C.ar    1  UNL1        0.0888
     18 C         140.4873  142.4577  168.5973 C.ar    1  UNL1        0.0173
     19 C         140.4091  143.2112  167.3026 C.ar    1  UNL1        0.0029
     20 C         139.9172  142.5240  166.0634 C.ar    1  UNL1        0.0213
     21 C         139.5035  141.0832  166.1188 C.ar    1  UNL1        0.0986
     22 N         139.5817  140.3297  167.4134 N.ar    1  UNL1       -0.2457
     23 C         140.1518  140.2634  169.9473 C.3     1  UNL1        0.1876
     24 C         142.7042  139.7782  169.9518 C.3     1  UNL1        0.1747
     25 O         141.2956  139.3271  170.2021 O.3     1  UNL1       -0.3447
     26 C         143.2202  141.4380  162.2078 C.3     1  UNL1        0.0900
     27 C         144.3154  141.8132  163.1615 C.3     1  UNL1        0.0252
     28 C         144.7450  140.8490  164.2272 C.3     1  UNL1        0.0315
     29 C         144.0793  139.5095  164.3392 C.3     1  UNL1        0.1155
     30 C         142.9841  139.1342  163.3855 C.3     1  UNL1        0.0315
     31 C         142.5545  140.0984  162.3198 C.3     1  UNL1        0.0252
     32 O         144.5089  138.5453  165.4049 O.3     1  UNL1       -0.3536
     33 C         143.5979  138.2482  166.5591 C.3     1  UNL1        0.1740
@<TRIPOS>BOND
     1    24    25    1
     2    25    23    1
     3    23    17    1
     4    17    18   ar
     5    18    19   ar
     6    19    20   ar
     7    20     1    1
     8     1     2   ar
     9     2     3   ar
    10     3     4   ar
    11     4     5   ar
    12     5     6   ar
    13     6     7    1
    14     4     8   ar
    15     8     9   ar
    16     9    10   ar
    17    10    11   ar
    18    11    12   ar
    19    26    12    1
    20    26    27    1
    21    27    28    1
    22    28    29    1
    23    29    32    1
    24    32    33    1
    25    29    30    1
    26    30    31    1
    27    12    13   ar
    28    13    14    2
    29    13    15   ar
    30    15    16    1
    31    20    21   ar
    32    21    22   ar
    33    22    17   ar
    34     6     1   ar
    35    15    10   ar
    36    11     3   ar
    37    31    26    1
@<TRIPOS>MOLECULE
*****
 33 37 0 0 0
SMALL
GASTEIGER

@<TRIPOS>ATOM
      1 C         143.2385  141.7265  164.9468 C.ar    1  UNL1        0.0291
      2 C         142.5726  141.0438  163.7890 C.ar    1  UNL1        0.0053
      3 C         143.0145  141.3426  162.3871 C.ar    1  UNL1        0.0352
      4 C         144.1223  142.3240  162.1429 C.ar    1  UNL1        0.0850
      5 C         144.7882  143.0066  163.3007 C.ar    1  UNL1        0.0488
      6 C         144.3463  142.7079  164.7026 C.ar    1  UNL1        0.1416
      7 F         145.0122  143.3906  165.8604 F       1  UNL1       -0.2041
      8 N         144.5642  142.6227  160.7409 N.ar    1  UNL1       -0.2422
      9 C         143.8983  141.9400  159.5831 C.ar    1  UNL1        0.1175
     10 C         142.7905  140.9586  159.8273 C.ar    1  UNL1        0.0989
     11 C         142.3486  140.6599  161.2292 C.ar    1  UNL1        0.0826
     12 N         141.2381  139.6538  161.1608 N.ar    1  UNL1       -0.2817
     13 C         140.9937  139.3308  159.7166 C.ar    1  UNL1        0.3316
     14 O         139.9696  138.3700  159.1891 O.2     1  UNL1       -0.2463
     15 N         141.9531  140.1371  158.8924 N.ar    1  UNL1       -0.2765
     16 C         142.0569  140.1243  157.3960 C.3     1  UNL1        0.1352
     17 C         141.9128  140.8305  169.1528 C.ar    1  UNL1        0.0888
     18 C         142.4963  139.7414  168.3022 C.ar    1  UNL1        0.0173
     19 C         142.9382  140.0401  166.9002 C.ar    1  UNL1        0.0029
     20 C         142.7966  141.4278  166.3488 C.ar    1  UNL1        0.0213
     21 C         142.2131  142.5169  167.1993 C.ar    1  UNL1        0.0986
     22 N         141.7712  142.2183  168.6013 N.ar    1  UNL1       -0.2457
     23 C         141.4709  140.5319  170.5547 C.3     1  UNL1        0.1876
     24 C         138.9346  140.4157  170.0035 C.3     1  UNL1        0.1747
     25 O         140.0430  140.7569  170.9550 O.3     1  UNL1       -0.3447
     26 C         140.5014  139.0729  162.3312 C.3     1  UNL1        0.0900
     27 C         141.0698  137.8949  163.0655 C.3     1  UNL1        0.0252
     28 C         140.3330  137.3139  164.2358 C.3     1  UNL1        0.0315
     29 C         139.0279  137.9110  164.6719 C.3     1  UNL1        0.1155
     30 C         138.4595  139.0890  163.9375 C.3     1  UNL1        0.0315
     31 C         139.1962  139.6700  162.7672 C.3     1  UNL1        0.0252
     32 O         138.2912  137.3300  165.8422 O.3     1  UNL1       -0.3536
     33 C         137.6749  138.2371  166.8658 C.3     1  UNL1        0.1740
@<TRIPOS>BOND
     1    24    25    1
     2    25    23    1
     3    23    17    1
     4    17    18   ar
     5    18    19   ar
     6    19    20   ar
     7    20     1    1
     8     1     2   ar
     9     2     3   ar
    10     3     4   ar
    11     4     5   ar
    12     5     6   ar
    13     6     7    1
    14     4     8   ar
    15     8     9   ar
    16     9    10   ar
    17    10    11   ar
    18    11    12   ar
    19    26    12    1
    20    26    27    1
    21    27    28    1
    22    28    29    1
    23    29    32    1
    24    32    33    1
    25    29    30    1
    26    30    31    1
    27    12    13   ar
    28    13    14    2
    29    13    15   ar
    30    15    16    1
    31    20    21   ar
    32    21    22   ar
    33    22    17   ar
    34     6     1   ar
    35    15    10   ar
    36    11     3   ar
    37    31    26    1
@<TRIPOS>MOLECULE
*****
 33 37 0 0 0
SMALL
GASTEIGER

@<TRIPOS>ATOM
      1 C         140.4310  143.2060  163.4691 C.ar    1  UNL1        0.0291
      2 C         141.1669  142.1046  164.1728 C.ar    1  UNL1        0.0053
      3 C         141.0717  141.9723  165.6639 C.ar    1  UNL1        0.0352
      4 C         140.2406  142.9415  166.4513 C.ar    1  UNL1        0.0850
      5 C         139.5047  144.0430  165.7475 C.ar    1  UNL1        0.0488
      6 C         139.5999  144.1752  164.2564 C.ar    1  UNL1        0.1416
      7 F         138.8640  145.2767  163.5526 F       1  UNL1       -0.2041
      8 N         140.1454  142.8093  167.9424 N.ar    1  UNL1       -0.2422
      9 C         140.8812  141.7078  168.6462 C.ar    1  UNL1        0.1175
     10 C         141.7123  140.7386  167.8588 C.ar    1  UNL1        0.0989
     11 C         141.8075  140.8709  166.3677 C.ar    1  UNL1        0.0826
     12 N         142.6974  139.7748  165.8610 N.ar    1  UNL1       -0.2817
     13 C         143.1521  138.9651  167.0390 C.ar    1  UNL1        0.3316
     14 O         144.0568  137.7696  166.9907 O.2     1  UNL1       -0.2463
     15 N         142.5433  139.5608  168.2737 N.ar    1  UNL1       -0.2765
     16 C         142.7323  139.0656  169.6770 C.3     1  UNL1        0.1352
     17 C         140.7166  143.6028  158.9956 C.ar    1  UNL1        0.0888
     18 C         141.9531  143.7073  159.8383 C.ar    1  UNL1        0.0173
     19 C         141.8579  143.5750  161.3295 C.ar    1  UNL1        0.0029
     20 C         140.5262  143.3383  161.9779 C.ar    1  UNL1        0.0213
     21 C         139.2897  143.2338  161.1353 C.ar    1  UNL1        0.0986
     22 N         139.3848  143.3661  159.6442 N.ar    1  UNL1       -0.2457
     23 C         140.8117  143.7351  157.5046 C.3     1  UNL1        0.1876
     24 C         140.1425  146.2418  157.3681 C.3     1  UNL1        0.1747
     25 O         140.0978  144.8527  156.8037 O.3     1  UNL1       -0.3447
     26 C         143.0675  139.5312  164.4280 C.3     1  UNL1        0.0900
     27 C         142.4206  138.4128  163.6659 C.3     1  UNL1        0.0252
     28 C         142.7907  138.1692  162.2329 C.3     1  UNL1        0.0315
     29 C         143.8078  139.0440  161.5619 C.3     1  UNL1        0.1155
     30 C         144.4547  140.1623  162.3239 C.3     1  UNL1        0.0315
     31 C         144.0846  140.4060  163.7569 C.3     1  UNL1        0.0252
     32 O         144.1779  138.8003  160.1288 O.3     1  UNL1       -0.3536
     33 C         143.6348  139.6922  159.0518 C.3     1  UNL1        0.1740
@<TRIPOS>BOND
     1    24    25    1
     2    25    23    1
     3    23    17    1
     4    17    18   ar
     5    18    19   ar
     6    19    20   ar
     7    20     1    1
     8     1     2   ar
     9     2     3   ar
    10     3     4   ar
    11     4     5   ar
    12     5     6   ar
    13     6     7    1
    14     4     8   ar
    15     8     9   ar
    16     9    10   ar
    17    10    11   ar
    18    11    12   ar
    19    26    12    1
    20    26    27    1
    21    27    28    1
    22    28    29    1
    23    29    32    1
    24    32    33    1
    25    29    30    1
    26    30    31    1
    27    12    13   ar
    28    13    14    2
    29    13    15   ar
    30    15    16    1
    31    20    21   ar
    32    21    22   ar
    33    22    17   ar
    34     6     1   ar
    35    15    10   ar
    36    11     3   ar
    37    31    26    1
@<TRIPOS>MOLECULE
*****
 33 37 0 0 0
SMALL
GASTEIGER

@<TRIPOS>ATOM
      1 C         142.7295  142.5458  163.4886 C.ar    1  UNL1        0.0291
      2 C         141.7994  141.8314  164.4237 C.ar    1  UNL1        0.0053
      3 C         142.0652  141.8428  165.8998 C.ar    1  UNL1        0.0352
      4 C         143.2612  142.5686  166.4410 C.ar    1  UNL1        0.0850
      5 C         144.1913  143.2831  165.5059 C.ar    1  UNL1        0.0488
      6 C         143.9255  143.2716  164.0297 C.ar    1  UNL1        0.1416
      7 F         144.8556  143.9861  163.0946 F       1  UNL1       -0.2041
      8 N         143.5270  142.5800  167.9172 N.ar    1  UNL1       -0.2422
      9 C         142.5969  141.8656  168.8523 C.ar    1  UNL1        0.1175
     10 C         141.4009  141.1397  168.3112 C.ar    1  UNL1        0.0989
     11 C         141.1351  141.1283  166.8350 C.ar    1  UNL1        0.0826
     12 N         139.8855  140.3340  166.5951 N.ar    1  UNL1       -0.2817
     13 C         139.3791  139.8544  167.9231 C.ar    1  UNL1        0.3316
     14 O         138.1515  139.0228  168.1506 O.2     1  UNL1       -0.2463
     15 N         140.3156  140.3524  168.9837 N.ar    1  UNL1       -0.2765
     16 C         140.1891  140.1063  170.4580 C.3     1  UNL1        0.1352
     17 C         141.9321  142.5116  159.0599 C.ar    1  UNL1        0.0888
     18 C         142.1574  141.2216  159.7913 C.ar    1  UNL1        0.0173
     19 C         142.4232  141.2330  161.2676 C.ar    1  UNL1        0.0029
     20 C         142.4637  142.5344  162.0123 C.ar    1  UNL1        0.0213
     21 C         142.2384  143.8244  161.2809 C.ar    1  UNL1        0.0986
     22 N         141.9726  143.8131  159.8047 N.ar    1  UNL1       -0.2457
     23 C         141.6663  142.5003  157.5837 C.3     1  UNL1        0.1876
     24 C         140.8525  144.6030  156.2928 C.3     1  UNL1        0.1747
     25 O         141.9687  143.7154  156.7579 O.3     1  UNL1       -0.3447
     26 C         139.2534  140.0662  165.2614 C.3     1  UNL1        0.0900
     27 C         139.6172  138.8300  164.4936 C.3     1  UNL1        0.0252
     28 C         138.9851  138.5622  163.1600 C.3     1  UNL1        0.0315
     29 C         137.9891  139.5307  162.5941 C.3     1  UNL1        0.1155
     30 C         137.6253  140.7668  163.3619 C.3     1  UNL1        0.0315
     31 C         138.2574  141.0346  164.6956 C.3     1  UNL1        0.0252
     32 O         137.3570  139.2629  161.2604 O.3     1  UNL1       -0.3536
     33 C         137.9000  139.9219  160.0271 C.3     1  UNL1        0.1740
@<TRIPOS>BOND
     1    24    25    1
     2    25    23    1
     3    23    17    1
     4    17    18   ar
     5    18    19   ar
     6    19    20   ar
     7    20     1    1
     8     1     2   ar
     9     2     3   ar
    10     3     4   ar
    11     4     5   ar
    12     5     6   ar
    13     6     7    1
    14     4     8   ar
    15     8     9   ar
    16     9    10   ar
    17    10    11   ar
    18    11    12   ar
    19    26    12    1
    20    26    27    1
    21    27    28    1
    22    28    29    1
    23    29    32    1
    24    32    33    1
    25    29    30    1
    26    30    31    1
    27    12    13   ar
    28    13    14    2
    29    13    15   ar
    30    15    16    1
    31    20    21   ar
    32    21    22   ar
    33    22    17   ar
    34     6     1   ar
    35    15    10   ar
    36    11     3   ar
    37    31    26    1
@<TRIPOS>MOLECULE
*****
 33 37 0 0 0
SMALL
GASTEIGER

@<TRIPOS>ATOM
      1 C         139.7846  139.8968  163.0645 C.ar    1  UNL1        0.0291
      2 C         140.0532  141.0326  162.1223 C.ar    1  UNL1        0.0053
      3 C         139.3506  141.0908  160.7983 C.ar    1  UNL1        0.0352
      4 C         138.3794  140.0133  160.4166 C.ar    1  UNL1        0.0850
      5 C         138.1108  138.8775  161.3588 C.ar    1  UNL1        0.0488
      6 C         138.8134  138.8193  162.6828 C.ar    1  UNL1        0.1416
      7 F         138.5449  137.6835  163.6251 F       1  UNL1       -0.2041
      8 N         137.6768  140.0716  159.0926 N.ar    1  UNL1       -0.2422
      9 C         137.9453  141.2074  158.1504 C.ar    1  UNL1        0.1175
     10 C         138.9166  142.2849  158.5321 C.ar    1  UNL1        0.0989
     11 C         139.6192  142.2267  159.8560 C.ar    1  UNL1        0.0826
     12 N         140.5171  143.4239  159.9574 N.ar    1  UNL1       -0.2817
     13 C         140.3694  144.2222  158.6961 C.ar    1  UNL1        0.3316
     14 O         141.0852  145.5001  158.3725 O.2     1  UNL1       -0.2463
     15 N         139.3802  143.5182  157.8152 N.ar    1  UNL1       -0.2765
     16 C         138.9331  143.9685  156.4559 C.3     1  UNL1        0.1352
     17 C         141.8925  139.7219  167.0365 C.ar    1  UNL1        0.0888
     18 C         142.6062  139.2923  165.7892 C.ar    1  UNL1        0.0173
     19 C         141.9036  139.3506  164.4651 C.ar    1  UNL1        0.0029
     20 C         140.4873  139.8385  164.3885 C.ar    1  UNL1        0.0213
     21 C         139.7735  140.2682  165.6359 C.ar    1  UNL1        0.0986
     22 N         140.4761  140.2099  166.9599 N.ar    1  UNL1       -0.2457
     23 C         142.5950  139.6636  168.3605 C.3     1  UNL1        0.1876
     24 C         143.0582  142.2178  168.4706 C.3     1  UNL1        0.1747
     25 O         142.7858  140.9158  169.1640 O.3     1  UNL1       -0.3447
     26 C         141.4065  143.7634  161.1166 C.3     1  UNL1        0.0900
     27 C         142.7946  143.1993  161.1873 C.3     1  UNL1        0.0252
     28 C         143.6840  143.5388  162.3465 C.3     1  UNL1        0.0315
     29 C         143.1852  144.4423  163.4350 C.3     1  UNL1        0.1155
     30 C         141.7971  145.0063  163.3643 C.3     1  UNL1        0.0315
     31 C         140.9077  144.6669  162.2052 C.3     1  UNL1        0.0252
     32 O         144.0746  144.7818  164.5942 O.3     1  UNL1       -0.3536
     33 C         144.6453  143.6877  165.4473 C.3     1  UNL1        0.1740
@<TRIPOS>BOND
     1    24    25    1
     2    25    23    1
     3    23    17    1
     4    17    18   ar
     5    18    19   ar
     6    19    20   ar
     7    20     1    1
     8     1     2   ar
     9     2     3   ar
    10     3     4   ar
    11     4     5   ar
    12     5     6   ar
    13     6     7    1
    14     4     8   ar
    15     8     9   ar
    16     9    10   ar
    17    10    11   ar
    18    11    12   ar
    19    26    12    1
    20    26    27    1
    21    27    28    1
    22    28    29    1
    23    29    32    1
    24    32    33    1
    25    29    30    1
    26    30    31    1
    27    12    13   ar
    28    13    14    2
    29    13    15   ar
    30    15    16    1
    31    20    21   ar
    32    21    22   ar
    33    22    17   ar
    34     6     1   ar
    35    15    10   ar
    36    11     3   ar
    37    31    26    1
@<TRIPOS>MOLECULE
*****
 33 37 0 0 0
SMALL
GASTEIGER

@<TRIPOS>ATOM
      1 C         142.7336  139.8022  163.1110 C.ar    1  UNL1        0.0291
      2 C         141.6443  139.9556  162.0913 C.ar    1  UNL1        0.0053
      3 C         141.7725  139.2934  160.7515 C.ar    1  UNL1        0.0352
      4 C         142.9900  138.4776  160.4315 C.ar    1  UNL1        0.0850
      5 C         144.0792  138.3242  161.4513 C.ar    1  UNL1        0.0488
      6 C         143.9511  138.9864  162.7910 C.ar    1  UNL1        0.1416
      7 F         145.0404  138.8330  163.8108 F       1  UNL1       -0.2041
      8 N         143.1181  137.8154  159.0917 N.ar    1  UNL1       -0.2422
      9 C         142.0289  137.9688  158.0720 C.ar    1  UNL1        0.1175
     10 C         140.8114  138.7846  158.3920 C.ar    1  UNL1        0.0989
     11 C         140.6832  139.4468  159.7317 C.ar    1  UNL1        0.0826
     12 N         139.3771  140.1837  159.7615 N.ar    1  UNL1       -0.2817
     13 C         138.6979  139.9768  158.4402 C.ar    1  UNL1        0.3316
     14 O         137.3661  140.5364  158.0362 O.2     1  UNL1       -0.2463
     15 N         139.5844  139.1121  157.5938 N.ar    1  UNL1       -0.2765
     16 C         139.2948  138.6551  156.1946 C.3     1  UNL1        0.1352
     17 C         142.3491  141.7889  167.1304 C.ar    1  UNL1        0.0888
     18 C         143.3350  142.3103  166.1273 C.ar    1  UNL1        0.0173
     19 C         143.4632  141.6480  164.7875 C.ar    1  UNL1        0.0029
     20 C         142.6055  140.4644  164.4508 C.ar    1  UNL1        0.0213
     21 C         141.6196  139.9431  165.4539 C.ar    1  UNL1        0.0986
     22 N         141.4914  140.6053  166.7937 N.ar    1  UNL1       -0.2457
     23 C         142.2210  142.4511  168.4702 C.3     1  UNL1        0.1876
     24 C         140.4999  143.8372  169.8365 C.3     1  UNL1        0.1747
     25 O         140.8749  142.5735  169.1205 O.3     1  UNL1       -0.3447
     26 C         138.8436  140.9864  160.9109 C.3     1  UNL1        0.0900
     27 C         139.1307  142.4562  160.9965 C.3     1  UNL1        0.0252
     28 C         138.5973  143.2589  162.1458 C.3     1  UNL1        0.0315
     29 C         137.7767  142.5918  163.2097 C.3     1  UNL1        0.1155
     30 C         137.4896  141.1221  163.1241 C.3     1  UNL1        0.0315
     31 C         138.0230  140.3193  161.9747 C.3     1  UNL1        0.0252
     32 O         137.2433  143.3946  164.3590 O.3     1  UNL1       -0.3536
     33 C         138.0955  144.4534  164.9939 C.3     1  UNL1        0.1740
@<TRIPOS>BOND
     1    24    25    1
     2    25    23    1
     3    23    17    1
     4    17    18   ar
     5    18    19   ar
     6    19    20   ar
     7    20     1    1
     8     1     2   ar
     9     2     3   ar
    10     3     4   ar
    11     4     5   ar
    12     5     6   ar
    13     6     7    1
    14     4     8   ar
    15     8     9   ar
    16     9    10   ar
    17    10    11   ar
    18    11    12   ar
    19    26    12    1
    20    26    27    1
    21    27    28    1
    22    28    29    1
    23    29    32    1
    24    32    33    1
    25    29    30    1
    26    30    31    1
    27    12    13   ar
    28    13    14    2
    29    13    15   ar
    30    15    16    1
    31    20    21   ar
    32    21    22   ar
    33    22    17   ar
    34     6     1   ar
    35    15    10   ar
    36    11     3   ar
    37    31    26    1
