@<TRIPOS>MOLECULE
*****
 38 42 0 0 0
SMALL
GASTEIGER

@<TRIPOS>ATOM
      1 C         140.1199  139.6776  159.2967 C.3     1  UNL1        0.1628
      2 N         141.0493  138.6955  158.6473 N.ar    1  UNL1       -0.3047
      3 C         142.4292  138.3433  159.1182 C.ar    1  UNL1        0.1441
      4 N         142.9946  137.3233  158.1749 N.ar    1  UNL1       -0.2267
      5 C         141.9641  137.0450  157.1210 C.ar    1  UNL1        0.1010
      6 C         141.9652  136.1289  155.9332 C.ar    1  UNL1        0.0526
      7 C         140.7640  136.0610  155.0375 C.ar    1  UNL1        0.1690
      8 F         140.7651  135.1449  153.8496 F       1  UNL1       -0.2017
      9 C         139.5617  136.9091  155.3294 C.ar    1  UNL1        0.1689
     10 F         138.3605  136.8411  154.4335 F       1  UNL1       -0.2017
     11 C         139.5606  137.8251  156.5172 C.ar    1  UNL1        0.0507
     12 C         140.7618  137.8931  157.4130 C.ar    1  UNL1        0.0816
     13 C         143.1221  138.9115  160.3212 C.ar    1  UNL1        0.0342
     14 C         143.2600  138.0867  161.5664 C.ar    1  UNL1        0.0039
     15 C         143.9529  138.6549  162.7694 C.ar    1  UNL1        0.0115
     16 C         144.5079  140.0477  162.7271 C.ar    1  UNL1        0.0577
     17 CL        145.2007  140.6159  163.9301 Cl      1  UNL1       -0.0822
     18 C         144.3700  140.8725  161.4818 C.ar    1  UNL1        0.0115
     19 C         143.6771  140.3043  160.2789 C.ar    1  UNL1        0.0039
     20 C         139.7812  140.9626  158.6010 C.3     1  UNL1        0.0297
     21 C         140.8730  141.9137  158.2089 C.3     1  UNL1        0.0024
     22 C         140.5343  143.1987  157.5132 C.3     1  UNL1        0.0001
     23 C         139.1038  143.5327  157.2096 C.3     1  UNL1        0.0000
     24 C         138.0121  142.5817  157.6017 C.3     1  UNL1        0.0001
     25 C         138.3507  141.2967  158.2973 C.3     1  UNL1        0.0024
     26 O         138.2995  138.6485  161.1004 O.2     1  UNL1       -0.2731
     27 C         139.5292  139.3748  160.6419 C.2     1  UNL1        0.2431
     28 N         140.2205  139.8444  161.8875 N.am    1  UNL1       -0.3044
     29 H         141.0619  140.3514  161.8222 H       1  UNL1        0.1494
     30 C         139.6298  139.5415  163.2326 C.3     1  UNL1        0.0716
     31 C         138.7659  140.5581  163.9184 C.3     1  UNL1        0.0199
     32 C         138.1751  140.2552  165.2635 C.3     1  UNL1        0.0072
     33 C         138.4483  138.9359  165.9229 C.3     1  UNL1        0.0367
     34 C         139.3123  137.9194  165.2370 C.3     1  UNL1        0.0072
     35 C         139.9030  138.2222  163.8919 C.3     1  UNL1        0.0199
     36 C         137.8576  138.6330  167.2679 C.2     1  UNL1        0.0500
     37 O         136.7649  137.6133  167.3949 O.co2   1  UNL1       -0.5492
     38 O         138.3597  139.3499  168.4861 O.co2   1  UNL1       -0.5492
@<TRIPOS>UNITY_ATOM_ATTR
37 1
charge -1
@<TRIPOS>BOND
     1    26    27    2
     2    27    28   am
     3    30    28    1
     4    30    31    1
     5    31    32    1
     6    32    33    1
     7    33    36    1
     8    36    37   ar
     9    36    38   ar
    10    33    34    1
    11    34    35    1
    12    27     1    1
    13     1    20    1
    14    20    21    1
    15    21    22    1
    16    22    23    1
    17    23    24    1
    18    24    25    1
    19     1     2    1
    20     2     3   ar
    21     3    13    1
    22    13    14   ar
    23    14    15   ar
    24    15    16   ar
    25    16    17    1
    26    16    18   ar
    27    18    19   ar
    28     3     4   ar
    29     4     5   ar
    30     5     6   ar
    31     6     7   ar
    32     7     8    1
    33     7     9   ar
    34     9    10    1
    35     9    11   ar
    36    11    12   ar
    37    35    30    1
    38    25    20    1
    39    12     2   ar
    40    19    13   ar
    41    12     5   ar
    42    28    29    1
@<TRIPOS>MOLECULE
*****
 38 42 0 0 0
SMALL
GASTEIGER

@<TRIPOS>ATOM
      1 C         139.9514  141.8947  162.6128 C.3     1  UNL1        0.1628
      2 N         140.0729  140.7907  161.6045 N.ar    1  UNL1       -0.3047
      3 C         140.8479  139.5184  161.7794 C.ar    1  UNL1        0.1441
      4 N         140.6948  138.7067  160.5273 N.ar    1  UNL1       -0.2267
      5 C         139.8251  139.4773  159.5787 C.ar    1  UNL1        0.1010
      6 C         139.3335  139.1726  158.1947 C.ar    1  UNL1        0.0526
      7 C         138.4576  140.1558  157.4765 C.ar    1  UNL1        0.1690
      8 F         137.9660  139.8511  156.0925 F       1  UNL1       -0.2017
      9 C         138.0733  141.4439  158.1423 C.ar    1  UNL1        0.1689
     10 F         137.1974  142.4272  157.4240 F       1  UNL1       -0.2017
     11 C         138.5649  141.7486  159.5263 C.ar    1  UNL1        0.0507
     12 C         139.4408  140.7653  160.2445 C.ar    1  UNL1        0.0816
     13 C         141.6375  139.1267  162.9931 C.ar    1  UNL1        0.0342
     14 C         142.9326  139.8179  163.3006 C.ar    1  UNL1        0.0039
     15 C         143.7222  139.4262  164.5144 C.ar    1  UNL1        0.0115
     16 C         143.2165  138.3431  165.4206 C.ar    1  UNL1        0.0577
     17 CL        144.0061  137.9514  166.6343 Cl      1  UNL1       -0.0822
     18 C         141.9214  137.6519  165.1131 C.ar    1  UNL1        0.0115
     19 C         141.1318  138.0436  163.8993 C.ar    1  UNL1        0.0039
     20 C         139.9754  143.3259  162.1645 C.3     1  UNL1        0.0297
     21 C         141.0410  143.7982  161.2202 C.3     1  UNL1        0.0024
     22 C         141.0651  145.2295  160.7719 C.3     1  UNL1        0.0001
     23 C         140.0237  146.1884  161.2679 C.3     1  UNL1        0.0000
     24 C         138.9582  145.7161  162.2121 C.3     1  UNL1        0.0001
     25 C         138.9341  144.2848  162.6604 C.3     1  UNL1        0.0024
     26 O         138.8203  140.7615  164.8629 O.2     1  UNL1       -0.2731
     27 C         139.8057  141.5674  164.0695 C.2     1  UNL1        0.2431
     28 N         140.7974  142.1003  165.0607 N.am    1  UNL1       -0.3044
     29 H         141.5439  142.6649  164.7553 H       1  UNL1        0.1494
     30 C         140.6517  141.7730  166.5172 C.3     1  UNL1        0.0716
     31 C         140.3993  142.8684  167.5104 C.3     1  UNL1        0.0199
     32 C         140.2536  142.5411  168.9671 C.3     1  UNL1        0.0072
     33 C         140.3602  141.1185  169.4305 C.3     1  UNL1        0.0367
     34 C         140.6126  140.0231  168.4372 C.3     1  UNL1        0.0072
     35 C         140.7583  140.3504  166.9806 C.3     1  UNL1        0.0199
     36 C         140.2145  140.7912  170.8871 C.2     1  UNL1        0.0500
     37 O         139.6020  139.4873  171.3052 O.co2   1  UNL1       -0.5492
     38 O         140.6812  141.7678  171.9255 O.co2   1  UNL1       -0.5492
@<TRIPOS>UNITY_ATOM_ATTR
37 1
charge -1
@<TRIPOS>BOND
     1    26    27    2
     2    27    28   am
     3    30    28    1
     4    30    31    1
     5    31    32    1
     6    32    33    1
     7    33    36    1
     8    36    37   ar
     9    36    38   ar
    10    33    34    1
    11    34    35    1
    12    27     1    1
    13     1    20    1
    14    20    21    1
    15    21    22    1
    16    22    23    1
    17    23    24    1
    18    24    25    1
    19     1     2    1
    20     2     3   ar
    21     3    13    1
    22    13    14   ar
    23    14    15   ar
    24    15    16   ar
    25    16    17    1
    26    16    18   ar
    27    18    19   ar
    28     3     4   ar
    29     4     5   ar
    30     5     6   ar
    31     6     7   ar
    32     7     8    1
    33     7     9   ar
    34     9    10    1
    35     9    11   ar
    36    11    12   ar
    37    35    30    1
    38    25    20    1
    39    12     2   ar
    40    19    13   ar
    41    12     5   ar
    42    28    29    1
@<TRIPOS>MOLECULE
*****
 38 42 0 0 0
SMALL
GASTEIGER

@<TRIPOS>ATOM
      1 C         140.8811  141.6905  159.9617 C.3     1  UNL1        0.1628
      2 N         140.9434  143.1372  159.5704 N.ar    1  UNL1       -0.3047
      3 C         141.6354  144.2279  160.3330 C.ar    1  UNL1        0.1441
      4 N         141.4443  145.5119  159.5816 N.ar    1  UNL1       -0.2267
      5 C         140.6342  145.2149  158.3546 C.ar    1  UNL1        0.1010
      6 C         140.1385  146.0913  157.2427 C.ar    1  UNL1        0.0526
      7 C         139.3332  145.4999  156.1239 C.ar    1  UNL1        0.1690
      8 F         138.8375  146.3762  155.0120 F       1  UNL1       -0.2017
      9 C         139.0237  144.0322  156.1170 C.ar    1  UNL1        0.1689
     10 F         138.2184  143.4409  154.9981 F       1  UNL1       -0.2017
     11 C         139.5194  143.1559  157.2288 C.ar    1  UNL1        0.0507
     12 C         140.3247  143.7472  158.3476 C.ar    1  UNL1        0.0816
     13 C         142.3865  144.0633  161.6209 C.ar    1  UNL1        0.0342
     14 C         143.7171  143.3710  161.6299 C.ar    1  UNL1        0.0039
     15 C         144.4683  143.2065  162.9178 C.ar    1  UNL1        0.0115
     16 C         143.8888  143.7342  164.1967 C.ar    1  UNL1        0.0577
     17 CL        144.6400  143.5697  165.4846 Cl      1  UNL1       -0.0822
     18 C         142.5582  144.4265  164.1877 C.ar    1  UNL1        0.0115
     19 C         141.8070  144.5911  162.8998 C.ar    1  UNL1        0.0039
     20 C         141.5199  140.6497  159.0907 C.3     1  UNL1        0.0297
     21 C         140.8187  139.3473  158.8412 C.3     1  UNL1        0.0024
     22 C         141.4574  138.3064  157.9702 C.3     1  UNL1        0.0001
     23 C         142.7973  138.5680  157.3487 C.3     1  UNL1        0.0000
     24 C         143.4985  139.8703  157.5982 C.3     1  UNL1        0.0001
     25 C         142.8597  140.9112  158.4692 C.3     1  UNL1        0.0024
     26 O         138.7772  141.4380  161.7326 O.2     1  UNL1       -0.2731
     27 C         140.1800  141.2845  161.2242 C.2     1  UNL1        0.2431
     28 N         140.9320  140.5572  162.2991 N.am    1  UNL1       -0.3044
     29 H         141.8858  140.3463  162.1761 H       1  UNL1        0.1494
     30 C         140.2309  140.1513  163.5615 C.3     1  UNL1        0.0716
     31 C         140.1764  141.0954  164.7258 C.3     1  UNL1        0.0199
     32 C         139.4752  140.6895  165.9883 C.3     1  UNL1        0.0072
     33 C         138.8286  139.3396  166.0864 C.3     1  UNL1        0.0367
     34 C         138.8831  138.3956  164.9219 C.3     1  UNL1        0.0072
     35 C         139.5842  138.8014  163.6595 C.3     1  UNL1        0.0199
     36 C         138.1274  138.9337  167.3487 C.2     1  UNL1        0.0500
     37 O         137.0024  137.9430  167.2965 O.co2   1  UNL1       -0.5492
     38 O         138.5513  139.5187  168.6633 O.co2   1  UNL1       -0.5492
@<TRIPOS>UNITY_ATOM_ATTR
37 1
charge -1
@<TRIPOS>BOND
     1    26    27    2
     2    27    28   am
     3    30    28    1
     4    30    31    1
     5    31    32    1
     6    32    33    1
     7    33    36    1
     8    36    37   ar
     9    36    38   ar
    10    33    34    1
    11    34    35    1
    12    27     1    1
    13     1    20    1
    14    20    21    1
    15    21    22    1
    16    22    23    1
    17    23    24    1
    18    24    25    1
    19     1     2    1
    20     2     3   ar
    21     3    13    1
    22    13    14   ar
    23    14    15   ar
    24    15    16   ar
    25    16    17    1
    26    16    18   ar
    27    18    19   ar
    28     3     4   ar
    29     4     5   ar
    30     5     6   ar
    31     6     7   ar
    32     7     8    1
    33     7     9   ar
    34     9    10    1
    35     9    11   ar
    36    11    12   ar
    37    35    30    1
    38    25    20    1
    39    12     2   ar
    40    19    13   ar
    41    12     5   ar
    42    28    29    1
@<TRIPOS>MOLECULE
*****
 38 42 0 0 0
SMALL
GASTEIGER

@<TRIPOS>ATOM
      1 C         141.4985  141.9158  164.1470 C.3     1  UNL1        0.1628
      2 N         141.9570  140.9466  165.1959 N.ar    1  UNL1       -0.3047
      3 C         142.4735  139.5600  164.9497 C.ar    1  UNL1        0.1441
      4 N         142.8152  138.9503  166.2769 N.ar    1  UNL1       -0.2267
      5 C         142.5099  139.9600  167.3434 C.ar    1  UNL1        0.1010
      6 C         142.6463  139.9153  168.8365 C.ar    1  UNL1        0.0526
      7 C         142.2522  141.1044  169.6614 C.ar    1  UNL1        0.1690
      8 F         142.3886  141.0598  171.1546 F       1  UNL1       -0.2017
      9 C         141.7218  142.3383  168.9933 C.ar    1  UNL1        0.1689
     10 F         141.3278  143.5274  169.8184 F       1  UNL1       -0.2017
     11 C         141.5854  142.3829  167.5002 C.ar    1  UNL1        0.0507
     12 C         141.9794  141.1938  166.6753 C.ar    1  UNL1        0.0816
     13 C         142.6223  138.8992  163.6114 C.ar    1  UNL1        0.0342
     14 C         143.9839  138.7315  163.0049 C.ar    1  UNL1        0.0039
     15 C         144.1326  138.0707  161.6666 C.ar    1  UNL1        0.0115
     16 C         142.9198  137.5777  160.9346 C.ar    1  UNL1        0.0577
     17 CL        143.0685  136.9169  159.5963 Cl      1  UNL1       -0.0822
     18 C         141.5582  137.7454  161.5411 C.ar    1  UNL1        0.0115
     19 C         141.4094  138.4062  162.8794 C.ar    1  UNL1        0.0039
     20 C         140.2397  142.7048  164.3536 C.3     1  UNL1        0.0297
     21 C         140.3131  144.1813  164.6076 C.3     1  UNL1        0.0024
     22 C         139.0543  144.9704  164.8143 C.3     1  UNL1        0.0001
     23 C         137.7219  144.2828  164.7670 C.3     1  UNL1        0.0000
     24 C         137.6485  142.8064  164.5130 C.3     1  UNL1        0.0001
     25 C         138.9073  142.0173  164.3064 C.3     1  UNL1        0.0024
     26 O         143.7077  142.5249  162.6060 O.2     1  UNL1       -0.2731
     27 C         142.2989  142.0961  162.8912 C.2     1  UNL1        0.2431
     28 N         141.6724  141.8208  161.5564 N.am    1  UNL1       -0.3044
     29 H         140.7358  141.5217  161.5045 H       1  UNL1        0.1494
     30 C         142.4728  142.0011  160.3007 C.3     1  UNL1        0.0716
     31 C         142.4672  143.3226  159.5911 C.3     1  UNL1        0.0199
     32 C         143.2677  143.5030  158.3353 C.3     1  UNL1        0.0072
     33 C         144.0737  142.3619  157.7893 C.3     1  UNL1        0.0367
     34 C         144.0793  141.0404  158.4990 C.3     1  UNL1        0.0072
     35 C         143.2789  140.8600  159.7547 C.3     1  UNL1        0.0199
     36 C         144.8742  142.5422  156.5336 C.2     1  UNL1        0.0500
     37 O         144.1787  142.8233  155.2347 O.co2   1  UNL1       -0.5492
     38 O         146.3702  142.4414  156.5769 O.co2   1  UNL1       -0.5492
@<TRIPOS>UNITY_ATOM_ATTR
37 1
charge -1
@<TRIPOS>BOND
     1    26    27    2
     2    27    28   am
     3    30    28    1
     4    30    31    1
     5    31    32    1
     6    32    33    1
     7    33    36    1
     8    36    37   ar
     9    36    38   ar
    10    33    34    1
    11    34    35    1
    12    27     1    1
    13     1    20    1
    14    20    21    1
    15    21    22    1
    16    22    23    1
    17    23    24    1
    18    24    25    1
    19     1     2    1
    20     2     3   ar
    21     3    13    1
    22    13    14   ar
    23    14    15   ar
    24    15    16   ar
    25    16    17    1
    26    16    18   ar
    27    18    19   ar
    28     3     4   ar
    29     4     5   ar
    30     5     6   ar
    31     6     7   ar
    32     7     8    1
    33     7     9   ar
    34     9    10    1
    35     9    11   ar
    36    11    12   ar
    37    35    30    1
    38    25    20    1
    39    12     2   ar
    40    19    13   ar
    41    12     5   ar
    42    28    29    1
@<TRIPOS>MOLECULE
*****
 38 42 0 0 0
SMALL
GASTEIGER

@<TRIPOS>ATOM
      1 C         141.9579  141.8929  162.5450 C.3     1  UNL1        0.1628
      2 N         142.1991  140.8266  161.5179 N.ar    1  UNL1       -0.3047
      3 C         141.6698  139.4237  161.5624 C.ar    1  UNL1        0.1441
      4 N         142.1556  138.7062  160.3380 N.ar    1  UNL1       -0.2267
      5 C         142.9850  139.6655  159.5368 C.ar    1  UNL1        0.1010
      6 C         143.7192  139.5150  158.2375 C.ar    1  UNL1        0.0526
      7 C         144.4803  140.6750  157.6675 C.ar    1  UNL1        0.1690
      8 F         145.2145  140.5246  156.3681 F       1  UNL1       -0.2017
      9 C         144.5072  141.9855  158.3968 C.ar    1  UNL1        0.1689
     10 F         145.2683  143.1456  157.8266 F       1  UNL1       -0.2017
     11 C         143.7730  142.1360  159.6961 C.ar    1  UNL1        0.0507
     12 C         143.0119  140.9760  160.2661 C.ar    1  UNL1        0.0816
     13 C         140.8065  138.8409  162.6417 C.ar    1  UNL1        0.0342
     14 C         139.3779  139.2777  162.7772 C.ar    1  UNL1        0.0039
     15 C         138.5146  138.6948  163.8565 C.ar    1  UNL1        0.0115
     16 C         139.0798  137.6751  164.8003 C.ar    1  UNL1        0.0577
     17 CL        138.2165  137.0922  165.8796 Cl      1  UNL1       -0.0822
     18 C         140.5084  137.2383  164.6648 C.ar    1  UNL1        0.0115
     19 C         141.3717  137.8212  163.5855 C.ar    1  UNL1        0.0039
     20 C         141.3538  143.2039  162.1375 C.3     1  UNL1        0.0297
     21 C         141.5058  144.4066  163.0209 C.3     1  UNL1        0.0024
     22 C         140.9018  145.7178  162.6134 C.3     1  UNL1        0.0001
     23 C         140.1457  145.8262  161.3225 C.3     1  UNL1        0.0000
     24 C         139.9936  144.6235  160.4391 C.3     1  UNL1        0.0001
     25 C         140.5977  143.3124  160.8466 C.3     1  UNL1        0.0024
     26 O         143.6096  141.6699  164.7470 O.2     1  UNL1       -0.2731
     27 C         142.3208  141.6480  163.9798 C.2     1  UNL1        0.2431
     28 N         141.2542  141.2945  164.9734 N.am    1  UNL1       -0.3044
     29 H         140.3159  141.2231  164.6839 H       1  UNL1        0.1494
     30 C         141.6171  141.0497  166.4081 C.3     1  UNL1        0.0716
     31 C         141.5045  142.1602  167.4101 C.3     1  UNL1        0.0199
     32 C         141.8675  141.9155  168.8449 C.3     1  UNL1        0.0072
     33 C         142.3431  140.5603  169.2775 C.3     1  UNL1        0.0367
     34 C         142.4557  139.4498  168.2754 C.3     1  UNL1        0.0072
     35 C         142.0927  139.6945  166.8407 C.3     1  UNL1        0.0199
     36 C         142.7061  140.3155  170.7122 C.2     1  UNL1        0.0500
     37 O         141.9659  141.0278  171.8052 O.co2   1  UNL1       -0.5492
     38 O         143.8093  139.3583  171.0538 O.co2   1  UNL1       -0.5492
@<TRIPOS>UNITY_ATOM_ATTR
37 1
charge -1
@<TRIPOS>BOND
     1    26    27    2
     2    27    28   am
     3    30    28    1
     4    30    31    1
     5    31    32    1
     6    32    33    1
     7    33    36    1
     8    36    37   ar
     9    36    38   ar
    10    33    34    1
    11    34    35    1
    12    27     1    1
    13     1    20    1
    14    20    21    1
    15    21    22    1
    16    22    23    1
    17    23    24    1
    18    24    25    1
    19     1     2    1
    20     2     3   ar
    21     3    13    1
    22    13    14   ar
    23    14    15   ar
    24    15    16   ar
    25    16    17    1
    26    16    18   ar
    27    18    19   ar
    28     3     4   ar
    29     4     5   ar
    30     5     6   ar
    31     6     7   ar
    32     7     8    1
    33     7     9   ar
    34     9    10    1
    35     9    11   ar
    36    11    12   ar
    37    35    30    1
    38    25    20    1
    39    12     2   ar
    40    19    13   ar
    41    12     5   ar
    42    28    29    1
@<TRIPOS>MOLECULE
*****
 38 42 0 0 0
SMALL
GASTEIGER

@<TRIPOS>ATOM
      1 C         141.6603  141.1360  162.3321 C.3     1  UNL1        0.1628
      2 N         140.7080  140.0516  162.7409 N.ar    1  UNL1       -0.3047
      3 C         140.2216  138.9310  161.8705 C.ar    1  UNL1        0.1441
      4 N         139.2880  138.0842  162.6836 N.ar    1  UNL1       -0.2267
      5 C         139.1973  138.6814  164.0566 C.ar    1  UNL1        0.1010
      6 C         138.4291  138.2751  165.2791 C.ar    1  UNL1        0.0526
      7 C         138.5384  139.0847  166.5371 C.ar    1  UNL1        0.1690
      8 F         137.7701  138.6784  167.7597 F       1  UNL1       -0.2017
      9 C         139.4161  140.3006  166.5725 C.ar    1  UNL1        0.1689
     10 F         139.5255  141.1103  167.8306 F       1  UNL1       -0.2017
     11 C         140.1844  140.7069  165.3500 C.ar    1  UNL1        0.0507
     12 C         140.0750  139.8973  164.0921 C.ar    1  UNL1        0.0816
     13 C         140.6020  138.6981  160.4383 C.ar    1  UNL1        0.0342
     14 C         141.9998  138.2782  160.0924 C.ar    1  UNL1        0.0039
     15 C         142.3803  138.0453  158.6602 C.ar    1  UNL1        0.0115
     16 C         141.3629  138.2324  157.5740 C.ar    1  UNL1        0.0577
     17 CL        141.7433  137.9995  156.1419 Cl      1  UNL1       -0.0822
     18 C         139.9651  138.6524  157.9200 C.ar    1  UNL1        0.0115
     19 C         139.5847  138.8852  159.3521 C.ar    1  UNL1        0.0039
     20 C         143.0512  141.1634  162.8927 C.3     1  UNL1        0.0297
     21 C         143.6714  139.9044  163.4224 C.3     1  UNL1        0.0024
     22 C         145.0624  139.9317  163.9830 C.3     1  UNL1        0.0001
     23 C         145.8333  141.2181  164.0141 C.3     1  UNL1        0.0000
     24 C         145.2132  142.4771  163.4844 C.3     1  UNL1        0.0001
     25 C         143.8222  142.4497  162.9238 C.3     1  UNL1        0.0024
     26 O         140.3368  143.4000  161.4666 O.2     1  UNL1       -0.2731
     27 C         141.2215  142.1932  161.3625 C.2     1  UNL1        0.2431
     28 N         141.7004  142.1530  159.9416 N.am    1  UNL1       -0.3044
     29 H         142.3027  141.4327  159.6453 H       1  UNL1        0.1494
     30 C         141.2616  143.2101  158.9721 C.3     1  UNL1        0.0716
     31 C         142.0814  144.4540  158.7972 C.3     1  UNL1        0.0199
     32 C         141.6427  145.5113  157.8277 C.3     1  UNL1        0.0072
     33 C         140.3842  145.3246  157.0332 C.3     1  UNL1        0.0367
     34 C         139.5645  144.0806  157.2082 C.3     1  UNL1        0.0072
     35 C         140.0032  143.0234  158.1776 C.3     1  UNL1        0.0199
     36 C         139.9454  146.3817  156.0637 C.2     1  UNL1        0.0500
     37 O         140.5247  146.4180  154.6806 O.co2   1  UNL1       -0.5492
     38 O         138.9273  147.4026  156.4775 O.co2   1  UNL1       -0.5492
@<TRIPOS>UNITY_ATOM_ATTR
37 1
charge -1
@<TRIPOS>BOND
     1    26    27    2
     2    27    28   am
     3    30    28    1
     4    30    31    1
     5    31    32    1
     6    32    33    1
     7    33    36    1
     8    36    37   ar
     9    36    38   ar
    10    33    34    1
    11    34    35    1
    12    27     1    1
    13     1    20    1
    14    20    21    1
    15    21    22    1
    16    22    23    1
    17    23    24    1
    18    24    25    1
    19     1     2    1
    20     2     3   ar
    21     3    13    1
    22    13    14   ar
    23    14    15   ar
    24    15    16   ar
    25    16    17    1
    26    16    18   ar
    27    18    19   ar
    28     3     4   ar
    29     4     5   ar
    30     5     6   ar
    31     6     7   ar
    32     7     8    1
    33     7     9   ar
    34     9    10    1
    35     9    11   ar
    36    11    12   ar
    37    35    30    1
    38    25    20    1
    39    12     2   ar
    40    19    13   ar
    41    12     5   ar
    42    28    29    1
@<TRIPOS>MOLECULE
*****
 38 42 0 0 0
SMALL
GASTEIGER

@<TRIPOS>ATOM
      1 C         140.1106  142.1028  160.4504 C.3     1  UNL1        0.1628
      2 N         140.5760  143.3536  159.7658 N.ar    1  UNL1       -0.3047
      3 C         141.6170  144.3042  160.2785 C.ar    1  UNL1        0.1441
      4 N         141.7665  145.4116  159.2778 N.ar    1  UNL1       -0.2267
      5 C         140.8180  145.1454  158.1467 C.ar    1  UNL1        0.1010
      6 C         140.5292  145.8969  156.8810 C.ar    1  UNL1        0.0526
      7 C         139.5047  145.3764  155.9170 C.ar    1  UNL1        0.1690
      8 F         139.2159  146.1279  154.6513 F       1  UNL1       -0.2017
      9 C         138.7690  144.1046  156.2186 C.ar    1  UNL1        0.1689
     10 F         137.7444  143.5841  155.2544 F       1  UNL1       -0.2017
     11 C         139.0577  143.3531  157.4842 C.ar    1  UNL1        0.0507
     12 C         140.0822  143.8735  158.4483 C.ar    1  UNL1        0.0816
     13 C         142.3752  144.1708  161.5659 C.ar    1  UNL1        0.0342
     14 C         141.8759  144.8536  162.8046 C.ar    1  UNL1        0.0039
     15 C         142.6342  144.7202  164.0919 C.ar    1  UNL1        0.0115
     16 C         143.8917  143.9040  164.1406 C.ar    1  UNL1        0.0577
     17 CL        144.6499  143.7706  165.4279 Cl      1  UNL1       -0.0822
     18 C         144.3910  143.2212  162.9019 C.ar    1  UNL1        0.0115
     19 C         143.6327  143.3546  161.6145 C.ar    1  UNL1        0.0039
     20 C         139.4797  142.1816  161.8089 C.3     1  UNL1        0.0297
     21 C         140.1424  141.5240  162.9830 C.3     1  UNL1        0.0024
     22 C         139.5115  141.6029  164.3416 C.3     1  UNL1        0.0001
     23 C         138.2178  142.3393  164.5261 C.3     1  UNL1        0.0000
     24 C         137.5551  142.9969  163.3521 C.3     1  UNL1        0.0001
     25 C         138.1860  142.9181  161.9935 C.3     1  UNL1        0.0024
     26 O         139.6922  139.4099  160.0032 O.2     1  UNL1       -0.2731
     27 C         140.2760  140.7729  159.7764 C.2     1  UNL1        0.2431
     28 N         141.2001  140.6368  158.6027 N.am    1  UNL1       -0.3044
     29 H         141.6979  141.4202  158.2746 H       1  UNL1        0.1494
     30 C         141.3655  139.3070  157.9287 C.3     1  UNL1        0.0716
     31 C         142.5288  138.4276  158.2803 C.3     1  UNL1        0.0199
     32 C         142.6943  137.0977  157.6064 C.3     1  UNL1        0.0072
     33 C         141.6965  136.6472  156.5810 C.3     1  UNL1        0.0367
     34 C         140.5332  137.5266  156.2295 C.3     1  UNL1        0.0072
     35 C         140.3677  138.8564  156.9034 C.3     1  UNL1        0.0199
     36 C         141.8619  135.3174  155.9071 C.2     1  UNL1        0.0500
     37 O         141.2692  135.0860  154.5487 O.co2   1  UNL1       -0.5492
     38 O         142.6200  134.2189  156.5916 O.co2   1  UNL1       -0.5492
@<TRIPOS>UNITY_ATOM_ATTR
37 1
charge -1
@<TRIPOS>BOND
     1    26    27    2
     2    27    28   am
     3    30    28    1
     4    30    31    1
     5    31    32    1
     6    32    33    1
     7    33    36    1
     8    36    37   ar
     9    36    38   ar
    10    33    34    1
    11    34    35    1
    12    27     1    1
    13     1    20    1
    14    20    21    1
    15    21    22    1
    16    22    23    1
    17    23    24    1
    18    24    25    1
    19     1     2    1
    20     2     3   ar
    21     3    13    1
    22    13    14   ar
    23    14    15   ar
    24    15    16   ar
    25    16    17    1
    26    16    18   ar
    27    18    19   ar
    28     3     4   ar
    29     4     5   ar
    30     5     6   ar
    31     6     7   ar
    32     7     8    1
    33     7     9   ar
    34     9    10    1
    35     9    11   ar
    36    11    12   ar
    37    35    30    1
    38    25    20    1
    39    12     2   ar
    40    19    13   ar
    41    12     5   ar
    42    28    29    1
@<TRIPOS>MOLECULE
*****
 38 42 0 0 0
SMALL
GASTEIGER

@<TRIPOS>ATOM
      1 C         141.9263  141.0891  162.8048 C.3     1  UNL1        0.1628
      2 N         141.2690  142.3384  163.3121 N.ar    1  UNL1       -0.3047
      3 C         140.9780  142.6609  164.7478 C.ar    1  UNL1        0.1441
      4 N         140.3166  144.0063  164.7957 N.ar    1  UNL1       -0.2267
      5 C         140.1988  144.5153  163.3896 C.ar    1  UNL1        0.1010
      6 C         139.6316  145.7843  162.8258 C.ar    1  UNL1        0.0526
      7 C         139.6530  146.0224  161.3450 C.ar    1  UNL1        0.1690
      8 F         139.0858  147.2914  160.7811 F       1  UNL1       -0.2017
      9 C         140.2417  144.9915  160.4280 C.ar    1  UNL1        0.1689
     10 F         140.2631  145.2297  158.9472 F       1  UNL1       -0.2017
     11 C         140.8089  143.7226  160.9919 C.ar    1  UNL1        0.0507
     12 C         140.7874  143.4845  162.4727 C.ar    1  UNL1        0.0816
     13 C         141.2931  141.7908  165.9283 C.ar    1  UNL1        0.0342
     14 C         140.2458  140.8715  166.4832 C.ar    1  UNL1        0.0039
     15 C         140.5609  140.0013  167.6638 C.ar    1  UNL1        0.0115
     16 C         141.9233  140.0505  168.2893 C.ar    1  UNL1        0.0577
     17 CL        142.2384  139.1804  169.4698 Cl      1  UNL1       -0.0822
     18 C         142.9706  140.9698  167.7344 C.ar    1  UNL1        0.0115
     19 C         142.6555  141.8400  166.5539 C.ar    1  UNL1        0.0039
     20 C         141.5732  139.7598  163.4032 C.3     1  UNL1        0.0297
     21 C         142.5760  139.0249  164.2425 C.3     1  UNL1        0.0024
     22 C         142.2230  137.6955  164.8409 C.3     1  UNL1        0.0001
     23 C         140.8670  137.1010  164.6001 C.3     1  UNL1        0.0000
     24 C         139.8642  137.8358  163.7608 C.3     1  UNL1        0.0001
     25 C         140.2173  139.1652  163.1624 C.3     1  UNL1        0.0024
     26 O         144.4341  141.2473  161.6593 O.2     1  UNL1       -0.2731
     27 C         142.9367  141.1692  161.6990 C.2     1  UNL1        0.2431
     28 N         142.4841  141.1821  160.2689 N.am    1  UNL1       -0.3044
     29 H         141.5239  141.1381  160.0561 H       1  UNL1        0.1494
     30 C         143.4945  141.2622  159.1633 C.3     1  UNL1        0.0716
     31 C         144.3615  142.4786  159.0263 C.3     1  UNL1        0.0199
     32 C         145.3720  142.5587  157.9205 C.3     1  UNL1        0.0072
     33 C         145.5155  141.4225  156.9518 C.3     1  UNL1        0.0367
     34 C         144.6484  140.2061  157.0889 C.3     1  UNL1        0.0072
     35 C         143.6379  140.1260  158.1945 C.3     1  UNL1        0.0199
     36 C         146.5259  141.5026  155.8461 C.2     1  UNL1        0.0500
     37 O         146.1964  140.9575  154.4881 O.co2   1  UNL1       -0.5492
     38 O         147.8658  142.1278  156.0986 O.co2   1  UNL1       -0.5492
@<TRIPOS>UNITY_ATOM_ATTR
37 1
charge -1
@<TRIPOS>BOND
     1    26    27    2
     2    27    28   am
     3    30    28    1
     4    30    31    1
     5    31    32    1
     6    32    33    1
     7    33    36    1
     8    36    37   ar
     9    36    38   ar
    10    33    34    1
    11    34    35    1
    12    27     1    1
    13     1    20    1
    14    20    21    1
    15    21    22    1
    16    22    23    1
    17    23    24    1
    18    24    25    1
    19     1     2    1
    20     2     3   ar
    21     3    13    1
    22    13    14   ar
    23    14    15   ar
    24    15    16   ar
    25    16    17    1
    26    16    18   ar
    27    18    19   ar
    28     3     4   ar
    29     4     5   ar
    30     5     6   ar
    31     6     7   ar
    32     7     8    1
    33     7     9   ar
    34     9    10    1
    35     9    11   ar
    36    11    12   ar
    37    35    30    1
    38    25    20    1
    39    12     2   ar
    40    19    13   ar
    41    12     5   ar
    42    28    29    1
@<TRIPOS>MOLECULE
*****
 38 42 0 0 0
SMALL
GASTEIGER

@<TRIPOS>ATOM
      1 C         141.1838  142.0121  161.8794 C.3     1  UNL1        0.1628
      2 N         140.8713  140.5490  161.9876 N.ar    1  UNL1       -0.3047
      3 C         141.1946  139.5004  160.9649 C.ar    1  UNL1        0.1441
      4 N         140.7037  138.1810  161.4827 N.ar    1  UNL1       -0.2267
      5 C         140.0770  138.4141  162.8255 C.ar    1  UNL1        0.1010
      6 C         139.4255  137.4828  163.8043 C.ar    1  UNL1        0.0526
      7 C         138.8775  138.0151  165.0952 C.ar    1  UNL1        0.1690
      8 F         138.2259  137.0838  166.0741 F       1  UNL1       -0.2017
      9 C         138.9811  139.4786  165.4072 C.ar    1  UNL1        0.1689
     10 F         138.4331  140.0108  166.6982 F       1  UNL1       -0.2017
     11 C         139.6326  140.4099  164.4284 C.ar    1  UNL1        0.0507
     12 C         140.1806  139.8776  163.1375 C.ar    1  UNL1        0.0816
     13 C         141.8871  139.7308  159.6544 C.ar    1  UNL1        0.0342
     14 C         141.1191  139.6207  158.3707 C.ar    1  UNL1        0.0039
     15 C         141.8117  139.8511  157.0603 C.ar    1  UNL1        0.0115
     16 C         143.2722  140.1916  157.0335 C.ar    1  UNL1        0.0577
     17 CL        143.9648  140.4219  155.7231 Cl      1  UNL1       -0.0822
     18 C         144.0403  140.3016  158.3172 C.ar    1  UNL1        0.0115
     19 C         143.3477  140.0712  159.6277 C.ar    1  UNL1        0.0039
     20 C         142.1500  142.6454  162.8361 C.3     1  UNL1        0.0297
     21 C         142.0578  144.1127  163.1338 C.3     1  UNL1        0.0024
     22 C         143.0240  144.7461  164.0905 C.3     1  UNL1        0.0001
     23 C         144.0824  143.9122  164.7495 C.3     1  UNL1        0.0000
     24 C         144.1746  142.4449  164.4519 C.3     1  UNL1        0.0001
     25 C         143.2084  141.8115  163.4952 C.3     1  UNL1        0.0024
     26 O         139.1991  143.5232  160.6946 O.2     1  UNL1       -0.2731
     27 C         140.5300  142.8419  160.8145 C.2     1  UNL1        0.2431
     28 N         141.2589  143.1307  159.5356 N.am    1  UNL1       -0.3044
     29 H         142.1663  142.7755  159.3952 H       1  UNL1        0.1494
     30 C         140.6051  143.9605  158.4708 C.3     1  UNL1        0.0716
     31 C         139.7760  143.3005  157.4091 C.3     1  UNL1        0.0199
     32 C         139.1221  144.1303  156.3442 C.3     1  UNL1        0.0072
     33 C         139.2974  145.6200  156.3409 C.3     1  UNL1        0.0367
     34 C         140.1265  146.2799  157.4026 C.3     1  UNL1        0.0072
     35 C         140.7803  145.4502  158.4675 C.3     1  UNL1        0.0199
     36 C         138.6436  146.4498  155.2761 C.2     1  UNL1        0.0500
     37 O         137.4276  145.9348  154.5648 O.co2   1  UNL1       -0.5492
     38 O         139.2059  147.7947  154.9225 O.co2   1  UNL1       -0.5492
@<TRIPOS>UNITY_ATOM_ATTR
37 1
charge -1
@<TRIPOS>BOND
     1    26    27    2
     2    27    28   am
     3    30    28    1
     4    30    31    1
     5    31    32    1
     6    32    33    1
     7    33    36    1
     8    36    37   ar
     9    36    38   ar
    10    33    34    1
    11    34    35    1
    12    27     1    1
    13     1    20    1
    14    20    21    1
    15    21    22    1
    16    22    23    1
    17    23    24    1
    18    24    25    1
    19     1     2    1
    20     2     3   ar
    21     3    13    1
    22    13    14   ar
    23    14    15   ar
    24    15    16   ar
    25    16    17    1
    26    16    18   ar
    27    18    19   ar
    28     3     4   ar
    29     4     5   ar
    30     5     6   ar
    31     6     7   ar
    32     7     8    1
    33     7     9   ar
    34     9    10    1
    35     9    11   ar
    36    11    12   ar
    37    35    30    1
    38    25    20    1
    39    12     2   ar
    40    19    13   ar
    41    12     5   ar
    42    28    29    1
