@<TRIPOS>MOLECULE
*****
 30 33 0 0 0
SMALL
GASTEIGER

@<TRIPOS>ATOM
      1 N         138.5507  142.8654  162.3962 N.3     1  UNL1       -0.2700
      2 C         137.4797  142.1271  163.1431 C.3     1  UNL1        0.0897
      3 C         137.4598  140.6272  163.1384 C.3     1  UNL1        0.0897
      4 N         138.5111  139.8656  162.3867 N.3     1  UNL1       -0.2700
      5 C         139.5821  140.6039  161.6398 C.3     1  UNL1        0.0897
      6 C         139.6019  142.1038  161.6446 C.3     1  UNL1        0.0897
      7 C         138.5705  144.3652  162.4009 C.3     1  UNL1        0.0769
      8 C         139.2686  145.1026  163.5050 C.3     1  UNL1        0.0437
      9 C         143.4046  143.8644  164.7739 C.ar    1  UNL1        0.2900
     10 C         142.2086  143.1140  165.2803 C.ar    1  UNL1        0.0749
     11 C         140.8299  143.5267  164.8573 C.ar    1  UNL1        0.0021
     12 C         140.6473  144.6898  163.9280 C.ar    1  UNL1       -0.0204
     13 C         141.8432  145.4402  163.4216 C.ar    1  UNL1        0.0021
     14 C         143.2219  145.0275  163.8445 C.ar    1  UNL1        0.0749
     15 O         145.4559  142.2888  164.5296 O.2     1  UNL1        0.0415
     16 N         144.7833  143.4516  165.1968 N.pl3   1  UNL1        0.0809
     17 O         145.4894  144.2018  166.2871 O.co2   1  UNL1       -0.5760
     18 C         138.4913  138.3658  162.3820 C.3     1  UNL1        0.0769
     19 C         138.9922  137.6053  163.5740 C.3     1  UNL1        0.0437
     20 C         139.2257  138.3170  164.8736 C.ar    1  UNL1       -0.0207
     21 C         140.5232  139.0295  165.1160 C.ar    1  UNL1       -0.0027
     22 C         140.7567  139.7411  166.4156 C.ar    1  UNL1        0.0189
     23 C         139.6927  139.7402  167.4729 C.ar    1  UNL1        0.0862
     24 C         138.3951  139.0277  167.2305 C.ar    1  UNL1        0.0189
     25 C         138.1616  138.3161  165.9309 C.ar    1  UNL1       -0.0027
     26 N         139.9262  140.4519  168.7725 N.ar    1  UNL1       -0.1886
     27 C         140.2779  141.9011  168.9334 C.ar    1  UNL1        0.2258
     28 N         140.4180  142.1842  170.3998 N.ar    1  UNL1       -0.1045
     29 N         140.1530  140.9098  171.1452 N.ar    1  UNL1       -0.0222
     30 N         139.8490  139.8392  170.1395 N.ar    1  UNL1       -0.0385
@<TRIPOS>UNITY_ATOM_ATTR
16 1
charge 1
17 1
charge -1
@<TRIPOS>BOND
     1    15    16    2
     2    16    17    1
     3    16     9    1
     4     9    10   ar
     5    10    11   ar
     6    11    12   ar
     7    12     8    1
     8     8     7    1
     9     7     1    1
    10     1     2    1
    11     2     3    1
    12     3     4    1
    13     4    18    1
    14    18    19    1
    15    19    20    1
    16    20    21   ar
    17    21    22   ar
    18    22    23   ar
    19    23    26    1
    20    26    27   ar
    21    27    28   ar
    22    28    29   ar
    23    29    30   ar
    24    23    24   ar
    25    24    25   ar
    26     4     5    1
    27     5     6    1
    28    12    13   ar
    29    13    14   ar
    30    14     9   ar
    31     6     1    1
    32    25    20   ar
    33    30    26   ar
@<TRIPOS>MOLECULE
*****
 30 33 0 0 0
SMALL
GASTEIGER

@<TRIPOS>ATOM
      1 N         139.0311  138.1062  162.6396 N.3     1  UNL1       -0.2700
      2 C         138.9434  138.1038  164.1371 C.3     1  UNL1        0.0897
      3 C         140.1947  138.0357  164.9615 C.3     1  UNL1        0.0897
      4 N         141.5336  137.9701  164.2885 N.3     1  UNL1       -0.2700
      5 C         141.6213  137.9725  162.7911 C.3     1  UNL1        0.0897
      6 C         140.3700  138.0406  161.9666 C.3     1  UNL1        0.0897
      7 C         137.7798  138.1743  161.8151 C.3     1  UNL1        0.0769
      8 C         137.5359  139.3514  160.9180 C.3     1  UNL1        0.0437
      9 C         138.6232  143.4947  162.2965 C.ar    1  UNL1        0.2900
     10 C         139.2154  142.9453  161.0327 C.ar    1  UNL1        0.0749
     11 C         138.8530  141.5642  160.5732 C.ar    1  UNL1        0.0021
     12 C         137.8983  140.7325  161.3775 C.ar    1  UNL1       -0.0204
     13 C         137.3062  141.2819  162.6413 C.ar    1  UNL1        0.0021
     14 C         137.6686  142.6631  163.1009 C.ar    1  UNL1        0.0749
     15 O         139.4090  145.1067  164.1764 O.2     1  UNL1        0.0415
     16 N         138.9856  144.8758  162.7561 N.pl3   1  UNL1        0.0809
     17 O         138.9246  146.0261  161.7953 O.co2   1  UNL1       -0.5760
     18 C         142.7849  137.9020  165.1129 C.3     1  UNL1        0.0769
     19 C         143.4107  139.1627  165.6319 C.3     1  UNL1        0.0437
     20 C         142.6706  140.0162  166.6187 C.ar    1  UNL1       -0.0207
     21 C         142.2704  139.4495  167.9486 C.ar    1  UNL1       -0.0027
     22 C         141.5303  140.3030  168.9355 C.ar    1  UNL1        0.0189
     23 C         141.1905  141.7232  168.5924 C.ar    1  UNL1        0.0862
     24 C         141.5907  142.2899  167.2625 C.ar    1  UNL1        0.0189
     25 C         142.3308  141.4364  166.2756 C.ar    1  UNL1       -0.0027
     26 N         140.4505  142.5766  169.5793 N.ar    1  UNL1       -0.1886
     27 C         140.5443  144.0689  169.6993 C.ar    1  UNL1        0.2258
     28 N         139.6385  144.5023  170.8136 N.ar    1  UNL1       -0.1045
     29 N         138.9848  143.2778  171.3823 N.ar    1  UNL1       -0.0222
     30 N         139.4866  142.0878  170.6194 N.ar    1  UNL1       -0.0385
@<TRIPOS>UNITY_ATOM_ATTR
16 1
charge 1
17 1
charge -1
@<TRIPOS>BOND
     1    15    16    2
     2    16    17    1
     3    16     9    1
     4     9    10   ar
     5    10    11   ar
     6    11    12   ar
     7    12     8    1
     8     8     7    1
     9     7     1    1
    10     1     2    1
    11     2     3    1
    12     3     4    1
    13     4    18    1
    14    18    19    1
    15    19    20    1
    16    20    21   ar
    17    21    22   ar
    18    22    23   ar
    19    23    26    1
    20    26    27   ar
    21    27    28   ar
    22    28    29   ar
    23    29    30   ar
    24    23    24   ar
    25    24    25   ar
    26     4     5    1
    27     5     6    1
    28    12    13   ar
    29    13    14   ar
    30    14     9   ar
    31     6     1    1
    32    25    20   ar
    33    30    26   ar
@<TRIPOS>MOLECULE
*****
 30 33 0 0 0
SMALL
GASTEIGER

@<TRIPOS>ATOM
      1 N         141.7567  137.8701  164.4620 N.3     1  UNL1       -0.2700
      2 C         142.3308  138.1418  163.1030 C.3     1  UNL1        0.0897
      3 C         143.5747  138.9687  162.9660 C.3     1  UNL1        0.0897
      4 N         144.2446  139.5239  164.1879 N.3     1  UNL1       -0.2700
      5 C         143.6706  139.2522  165.5468 C.3     1  UNL1        0.0897
      6 C         142.4266  138.4253  165.6838 C.3     1  UNL1        0.0897
      7 C         140.5128  137.0431  164.5990 C.3     1  UNL1        0.0769
      8 C         139.2149  137.6967  164.9709 C.3     1  UNL1        0.0437
      9 C         138.0983  141.6673  163.1716 C.ar    1  UNL1        0.2900
     10 C         138.2361  140.4584  162.2943 C.ar    1  UNL1        0.0749
     11 C         138.6083  139.1349  162.8941 C.ar    1  UNL1        0.0021
     12 C         138.8427  139.0202  164.3712 C.ar    1  UNL1       -0.0204
     13 C         138.7050  140.2290  165.2485 C.ar    1  UNL1        0.0021
     14 C         138.3328  141.5526  164.6487 C.ar    1  UNL1        0.0749
     15 O         137.3333  144.1332  163.4609 O.2     1  UNL1        0.0415
     16 N         137.7261  142.9908  162.5718 N.pl3   1  UNL1        0.0809
     17 O         137.7468  143.1719  161.0830 O.co2   1  UNL1       -0.5760
     18 C         145.4886  140.3509  164.0509 C.3     1  UNL1        0.0769
     19 C         145.4259  141.8373  164.2427 C.3     1  UNL1        0.0437
     20 C         144.3537  142.6366  163.5635 C.ar    1  UNL1       -0.0207
     21 C         143.5883  143.6716  164.3334 C.ar    1  UNL1       -0.0027
     22 C         142.5160  144.4709  163.6542 C.ar    1  UNL1        0.0189
     23 C         142.2091  144.2352  162.2050 C.ar    1  UNL1        0.0862
     24 C         142.9746  143.2002  161.4349 C.ar    1  UNL1        0.0189
     25 C         144.0468  142.4009  162.1142 C.ar    1  UNL1       -0.0027
     26 N         141.1369  145.0345  161.5258 N.ar    1  UNL1       -0.1886
     27 C         140.0798  145.8511  162.2083 C.ar    1  UNL1        0.2258
     28 N         139.2230  146.4788  161.1491 N.ar    1  UNL1       -0.1045
     29 N         139.7506  146.0503  159.8119 N.ar    1  UNL1       -0.0222
     30 N         140.9334  145.1577  160.0447 N.ar    1  UNL1       -0.0385
@<TRIPOS>UNITY_ATOM_ATTR
16 1
charge 1
17 1
charge -1
@<TRIPOS>BOND
     1    15    16    2
     2    16    17    1
     3    16     9    1
     4     9    10   ar
     5    10    11   ar
     6    11    12   ar
     7    12     8    1
     8     8     7    1
     9     7     1    1
    10     1     2    1
    11     2     3    1
    12     3     4    1
    13     4    18    1
    14    18    19    1
    15    19    20    1
    16    20    21   ar
    17    21    22   ar
    18    22    23   ar
    19    23    26    1
    20    26    27   ar
    21    27    28   ar
    22    28    29   ar
    23    29    30   ar
    24    23    24   ar
    25    24    25   ar
    26     4     5    1
    27     5     6    1
    28    12    13   ar
    29    13    14   ar
    30    14     9   ar
    31     6     1    1
    32    25    20   ar
    33    30    26   ar
@<TRIPOS>MOLECULE
*****
 30 33 0 0 0
SMALL
GASTEIGER

@<TRIPOS>ATOM
      1 N         139.9251  138.2777  161.7820 N.3     1  UNL1       -0.2700
      2 C         141.1188  138.9309  161.1508 C.3     1  UNL1        0.0897
      3 C         142.3921  139.0792  161.9298 C.3     1  UNL1        0.0897
      4 N         142.4716  138.5743  163.3400 N.3     1  UNL1       -0.2700
      5 C         141.2779  137.9211  163.9712 C.3     1  UNL1        0.0897
      6 C         140.0047  137.7728  163.1922 C.3     1  UNL1        0.0897
      7 C         138.6519  138.1294  161.0030 C.3     1  UNL1        0.0769
      8 C         137.5090  139.0696  161.2478 C.3     1  UNL1        0.0437
      9 C         138.3158  143.3022  162.5455 C.ar    1  UNL1        0.2900
     10 C         137.7326  142.3184  163.5161 C.ar    1  UNL1        0.0749
     11 C         137.4637  140.9076  163.0835 C.ar    1  UNL1        0.0021
     12 C         137.7780  140.4805  161.6804 C.ar    1  UNL1       -0.0204
     13 C         138.3612  141.4642  160.7098 C.ar    1  UNL1        0.0021
     14 C         138.6301  142.8751  161.1424 C.ar    1  UNL1        0.0749
     15 O         138.6654  145.8083  161.9564 O.2     1  UNL1        0.0415
     16 N         138.5848  144.7131  162.9781 N.pl3   1  UNL1        0.0809
     17 O         138.7731  145.0287  164.4323 O.co2   1  UNL1       -0.5760
     18 C         143.7449  138.7225  164.1191 C.3     1  UNL1        0.0769
     19 C         144.0846  140.0366  164.7579 C.3     1  UNL1        0.0437
     20 C         143.3702  140.4721  166.0029 C.ar    1  UNL1       -0.0207
     21 C         143.1829  141.9327  166.2881 C.ar    1  UNL1       -0.0027
     22 C         142.4686  142.3683  167.5331 C.ar    1  UNL1        0.0189
     23 C         141.9416  141.3431  168.4930 C.ar    1  UNL1        0.0862
     24 C         142.1289  139.8824  168.2078 C.ar    1  UNL1        0.0189
     25 C         142.8432  139.4469  166.9628 C.ar    1  UNL1       -0.0027
     26 N         141.2273  141.7787  169.7380 N.ar    1  UNL1       -0.1886
     27 C         141.5925  141.3992  171.1425 C.ar    1  UNL1        0.2258
     28 N         140.6133  142.0561  172.0697 N.ar    1  UNL1       -0.1045
     29 N         139.6429  142.8416  171.2382 N.ar    1  UNL1       -0.0222
     30 N         140.0224  142.6701  169.7971 N.ar    1  UNL1       -0.0385
@<TRIPOS>UNITY_ATOM_ATTR
16 1
charge 1
17 1
charge -1
@<TRIPOS>BOND
     1    15    16    2
     2    16    17    1
     3    16     9    1
     4     9    10   ar
     5    10    11   ar
     6    11    12   ar
     7    12     8    1
     8     8     7    1
     9     7     1    1
    10     1     2    1
    11     2     3    1
    12     3     4    1
    13     4    18    1
    14    18    19    1
    15    19    20    1
    16    20    21   ar
    17    21    22   ar
    18    22    23   ar
    19    23    26    1
    20    26    27   ar
    21    27    28   ar
    22    28    29   ar
    23    29    30   ar
    24    23    24   ar
    25    24    25   ar
    26     4     5    1
    27     5     6    1
    28    12    13   ar
    29    13    14   ar
    30    14     9   ar
    31     6     1    1
    32    25    20   ar
    33    30    26   ar
@<TRIPOS>MOLECULE
*****
 30 33 0 0 0
SMALL
GASTEIGER

@<TRIPOS>ATOM
      1 N         140.2477  144.5812  162.5968 N.3     1  UNL1       -0.2700
      2 C         140.8149  143.4789  161.7522 C.3     1  UNL1        0.0897
      3 C         142.2436  143.0579  161.9292 C.3     1  UNL1        0.0897
      4 N         143.1053  143.7392  162.9507 N.3     1  UNL1       -0.2700
      5 C         142.5381  144.8414  163.7953 C.3     1  UNL1        0.0897
      6 C         141.1094  145.2625  163.6183 C.3     1  UNL1        0.0897
      7 C         138.8190  145.0023  162.4199 C.3     1  UNL1        0.0769
      8 C         137.7235  144.2490  163.1145 C.3     1  UNL1        0.0437
      9 C         138.3632  139.9656  164.3365 C.ar    1  UNL1        0.2900
     10 C         138.7546  141.0768  165.2649 C.ar    1  UNL1        0.0749
     11 C         138.5414  142.5046  164.8575 C.ar    1  UNL1        0.0021
     12 C         137.9368  142.8212  163.5218 C.ar    1  UNL1       -0.0204
     13 C         137.5453  141.7099  162.5935 C.ar    1  UNL1        0.0021
     14 C         137.7586  140.2821  163.0008 C.ar    1  UNL1        0.0749
     15 O         139.2303  137.5770  163.7957 O.2     1  UNL1        0.0415
     16 N         138.5764  138.5378  164.7439 N.pl3   1  UNL1        0.0809
     17 O         138.1357  138.0708  166.0995 O.co2   1  UNL1       -0.5760
     18 C         144.5341  143.3181  163.1277 C.3     1  UNL1        0.0769
     19 C         144.8648  142.1234  163.9723 C.3     1  UNL1        0.0437
     20 C         143.9297  141.6946  165.0640 C.ar    1  UNL1       -0.0207
     21 C         143.1956  140.3912  164.9538 C.ar    1  UNL1       -0.0027
     22 C         142.2605  139.9625  166.0455 C.ar    1  UNL1        0.0189
     23 C         142.0594  140.8372  167.2473 C.ar    1  UNL1        0.0862
     24 C         142.7935  142.1407  167.3575 C.ar    1  UNL1        0.0189
     25 C         143.7287  142.5694  166.2658 C.ar    1  UNL1       -0.0027
     26 N         141.1243  140.4085  168.3390 N.ar    1  UNL1       -0.1886
     27 C         141.5230  139.9178  169.6993 C.ar    1  UNL1        0.2258
     28 N         140.2714  139.6013  170.4631 N.ar    1  UNL1       -0.1045
     29 N         139.0992  139.8964  169.5749 N.ar    1  UNL1       -0.0222
     30 N         139.6264  140.3953  168.2622 N.ar    1  UNL1       -0.0385
@<TRIPOS>UNITY_ATOM_ATTR
16 1
charge 1
17 1
charge -1
@<TRIPOS>BOND
     1    15    16    2
     2    16    17    1
     3    16     9    1
     4     9    10   ar
     5    10    11   ar
     6    11    12   ar
     7    12     8    1
     8     8     7    1
     9     7     1    1
    10     1     2    1
    11     2     3    1
    12     3     4    1
    13     4    18    1
    14    18    19    1
    15    19    20    1
    16    20    21   ar
    17    21    22   ar
    18    22    23   ar
    19    23    26    1
    20    26    27   ar
    21    27    28   ar
    22    28    29   ar
    23    29    30   ar
    24    23    24   ar
    25    24    25   ar
    26     4     5    1
    27     5     6    1
    28    12    13   ar
    29    13    14   ar
    30    14     9   ar
    31     6     1    1
    32    25    20   ar
    33    30    26   ar
@<TRIPOS>MOLECULE
*****
 30 33 0 0 0
SMALL
GASTEIGER

@<TRIPOS>ATOM
      1 N         142.4070  138.0094  162.7359 N.3     1  UNL1       -0.2700
      2 C         142.5651  138.1885  164.2168 C.3     1  UNL1        0.0897
      3 C         141.3551  138.2103  165.1030 C.3     1  UNL1        0.0897
      4 N         139.9870  138.0530  164.5084 N.3     1  UNL1       -0.2700
      5 C         139.8289  137.8739  163.0275 C.3     1  UNL1        0.0897
      6 C         141.0389  137.8521  162.1413 C.3     1  UNL1        0.0897
      7 C         143.6170  137.9877  161.8497 C.3     1  UNL1        0.0769
      8 C         144.1676  139.2703  161.3005 C.3     1  UNL1        0.0437
      9 C         144.3439  142.9391  163.9002 C.ar    1  UNL1        0.2900
     10 C         143.3216  142.8432  162.8067 C.ar    1  UNL1        0.0749
     11 C         143.2629  141.6202  161.9401 C.ar    1  UNL1        0.0021
     12 C         144.2263  140.4932  162.1670 C.ar    1  UNL1       -0.0204
     13 C         145.2486  140.5892  163.2605 C.ar    1  UNL1        0.0021
     14 C         145.3073  141.8121  164.1271 C.ar    1  UNL1        0.0749
     15 O         143.6326  145.3908  164.3831 O.2     1  UNL1        0.0415
     16 N         144.4026  144.1621  164.7667 N.pl3   1  UNL1        0.0809
     17 O         145.2314  144.1563  166.0169 O.co2   1  UNL1       -0.5760
     18 C         138.7769  138.0747  165.3946 C.3     1  UNL1        0.0769
     19 C         138.0481  139.3632  165.6372 C.3     1  UNL1        0.0437
     20 C         138.3581  140.5692  164.8009 C.ar    1  UNL1       -0.0207
     21 C         139.5180  141.4509  165.1571 C.ar    1  UNL1       -0.0027
     22 C         139.8280  142.6569  164.3208 C.ar    1  UNL1        0.0189
     23 C         138.9781  142.9812  163.1282 C.ar    1  UNL1        0.0862
     24 C         137.8180  142.0994  162.7719 C.ar    1  UNL1        0.0189
     25 C         137.5080  140.8934  163.6082 C.ar    1  UNL1       -0.0027
     26 N         139.2881  144.1872  162.2919 N.ar    1  UNL1       -0.1886
     27 C         140.4611  144.3431  161.3700 C.ar    1  UNL1        0.2258
     28 N         140.3775  145.7013  160.7390 N.ar    1  UNL1       -0.1045
     29 N         139.1528  146.3849  161.2707 N.ar    1  UNL1       -0.0222
     30 N         138.4795  145.4491  162.2305 N.ar    1  UNL1       -0.0385
@<TRIPOS>UNITY_ATOM_ATTR
16 1
charge 1
17 1
charge -1
@<TRIPOS>BOND
     1    15    16    2
     2    16    17    1
     3    16     9    1
     4     9    10   ar
     5    10    11   ar
     6    11    12   ar
     7    12     8    1
     8     8     7    1
     9     7     1    1
    10     1     2    1
    11     2     3    1
    12     3     4    1
    13     4    18    1
    14    18    19    1
    15    19    20    1
    16    20    21   ar
    17    21    22   ar
    18    22    23   ar
    19    23    26    1
    20    26    27   ar
    21    27    28   ar
    22    28    29   ar
    23    29    30   ar
    24    23    24   ar
    25    24    25   ar
    26     4     5    1
    27     5     6    1
    28    12    13   ar
    29    13    14   ar
    30    14     9   ar
    31     6     1    1
    32    25    20   ar
    33    30    26   ar
@<TRIPOS>MOLECULE
*****
 30 33 0 0 0
SMALL
GASTEIGER

@<TRIPOS>ATOM
      1 N         138.1696  140.1914  161.9596 N.3     1  UNL1       -0.2700
      2 C         137.3999  140.9554  162.9959 C.3     1  UNL1        0.0897
      3 C         137.7410  142.3885  163.2783 C.3     1  UNL1        0.0897
      4 N         138.8519  143.0577  162.5245 N.3     1  UNL1       -0.2700
      5 C         139.6217  142.2937  161.4883 C.3     1  UNL1        0.0897
      6 C         139.2805  140.8605  161.2058 C.3     1  UNL1        0.0897
      7 C         137.8285  138.7583  161.6772 C.3     1  UNL1        0.0769
      8 C         138.4527  137.6642  162.4915 C.3     1  UNL1        0.0437
      9 C         142.2892  138.4249  164.7170 C.ar    1  UNL1        0.2900
     10 C         142.3266  138.0383  163.2682 C.ar    1  UNL1        0.0749
     11 C         141.0478  137.7848  162.5264 C.ar    1  UNL1        0.0021
     12 C         139.7316  137.9178  163.2333 C.ar    1  UNL1       -0.0204
     13 C         139.6942  138.3043  164.6822 C.ar    1  UNL1        0.0021
     14 C         140.9730  138.5578  165.4240 C.ar    1  UNL1        0.0749
     15 O         144.7590  139.2311  164.7335 O.2     1  UNL1        0.0415
     16 N         143.5680  138.6784  165.4588 N.pl3   1  UNL1        0.0809
     17 O         143.6559  138.3793  166.9261 O.co2   1  UNL1       -0.5760
     18 C         139.1931  144.4908  162.8070 C.3     1  UNL1        0.0769
     19 C         140.3690  144.8245  163.6765 C.3     1  UNL1        0.0437
     20 C         140.7494  143.9132  164.8056 C.ar    1  UNL1       -0.0207
     21 C         139.8130  143.7198  165.9613 C.ar    1  UNL1       -0.0027
     22 C         140.1934  142.8085  167.0904 C.ar    1  UNL1        0.0189
     23 C         141.5102  142.0906  167.0637 C.ar    1  UNL1        0.0862
     24 C         142.4466  142.2840  165.9079 C.ar    1  UNL1        0.0189
     25 C         142.0662  143.1953  164.7789 C.ar    1  UNL1       -0.0027
     26 N         141.8906  141.1793  168.1928 N.ar    1  UNL1       -0.1886
     27 C         141.0689  140.0418  168.7229 C.ar    1  UNL1        0.2258
     28 N         141.8300  139.4050  169.8478 N.ar    1  UNL1       -0.1045
     29 N         143.1220  140.1488  170.0128 N.ar    1  UNL1       -0.0222
     30 N         143.1595  141.2454  168.9900 N.ar    1  UNL1       -0.0385
@<TRIPOS>UNITY_ATOM_ATTR
16 1
charge 1
17 1
charge -1
@<TRIPOS>BOND
     1    15    16    2
     2    16    17    1
     3    16     9    1
     4     9    10   ar
     5    10    11   ar
     6    11    12   ar
     7    12     8    1
     8     8     7    1
     9     7     1    1
    10     1     2    1
    11     2     3    1
    12     3     4    1
    13     4    18    1
    14    18    19    1
    15    19    20    1
    16    20    21   ar
    17    21    22   ar
    18    22    23   ar
    19    23    26    1
    20    26    27   ar
    21    27    28   ar
    22    28    29   ar
    23    29    30   ar
    24    23    24   ar
    25    24    25   ar
    26     4     5    1
    27     5     6    1
    28    12    13   ar
    29    13    14   ar
    30    14     9   ar
    31     6     1    1
    32    25    20   ar
    33    30    26   ar
@<TRIPOS>MOLECULE
*****
 30 33 0 0 0
SMALL
GASTEIGER

@<TRIPOS>ATOM
      1 N         138.5276  143.8751  162.6586 N.3     1  UNL1       -0.2700
      2 C         138.2797  143.4013  164.0601 C.3     1  UNL1        0.0897
      3 C         138.1081  141.9372  164.3375 C.3     1  UNL1        0.0897
      4 N         138.1844  140.9469  163.2134 N.3     1  UNL1       -0.2700
      5 C         138.4323  141.4207  161.8120 C.3     1  UNL1        0.0897
      6 C         138.6039  142.8848  161.5346 C.3     1  UNL1        0.0897
      7 C         138.6991  145.3392  162.3812 C.3     1  UNL1        0.0769
      8 C         140.0701  145.9040  162.1543 C.3     1  UNL1        0.0437
      9 C         143.7066  143.3912  162.9979 C.ar    1  UNL1        0.2900
     10 C         143.0238  144.1215  164.1160 C.ar    1  UNL1        0.0749
     11 C         141.8116  144.9591  163.8348 C.ar    1  UNL1        0.0021
     12 C         141.2823  145.0664  162.4355 C.ar    1  UNL1       -0.0204
     13 C         141.9651  144.3361  161.3173 C.ar    1  UNL1        0.0021
     14 C         143.1773  143.4985  161.5985 C.ar    1  UNL1        0.0749
     15 O         145.4611  142.4639  164.6747 O.2     1  UNL1        0.0415
     16 N         144.9188  142.5537  163.2791 N.pl3   1  UNL1        0.0809
     17 O         145.5887  141.8059  162.1646 O.co2   1  UNL1       -0.5760
     18 C         138.0129  139.4828  163.4908 C.3     1  UNL1        0.0769
     19 C         139.0280  138.7524  164.3193 C.3     1  UNL1        0.0437
     20 C         139.4010  139.2703  165.6767 C.ar    1  UNL1       -0.0207
     21 C         138.4204  139.1827  166.8083 C.ar    1  UNL1       -0.0027
     22 C         138.7934  139.7006  168.1658 C.ar    1  UNL1        0.0189
     23 C         140.1471  140.3061  168.3916 C.ar    1  UNL1        0.0862
     24 C         141.1278  140.3936  167.2599 C.ar    1  UNL1        0.0189
     25 C         140.7547  139.8758  165.9025 C.ar    1  UNL1       -0.0027
     26 N         140.5201  140.8239  169.7490 N.ar    1  UNL1       -0.1886
     27 C         141.7729  140.4938  170.5050 C.ar    1  UNL1        0.2258
     28 N         141.7329  141.2287  171.8120 N.ar    1  UNL1       -0.1045
     29 N         140.4554  142.0131  171.8638 N.ar    1  UNL1       -0.0222
     30 N         139.7059  141.7629  170.5888 N.ar    1  UNL1       -0.0385
@<TRIPOS>UNITY_ATOM_ATTR
16 1
charge 1
17 1
charge -1
@<TRIPOS>BOND
     1    15    16    2
     2    16    17    1
     3    16     9    1
     4     9    10   ar
     5    10    11   ar
     6    11    12   ar
     7    12     8    1
     8     8     7    1
     9     7     1    1
    10     1     2    1
    11     2     3    1
    12     3     4    1
    13     4    18    1
    14    18    19    1
    15    19    20    1
    16    20    21   ar
    17    21    22   ar
    18    22    23   ar
    19    23    26    1
    20    26    27   ar
    21    27    28   ar
    22    28    29   ar
    23    29    30   ar
    24    23    24   ar
    25    24    25   ar
    26     4     5    1
    27     5     6    1
    28    12    13   ar
    29    13    14   ar
    30    14     9   ar
    31     6     1    1
    32    25    20   ar
    33    30    26   ar
@<TRIPOS>MOLECULE
*****
 30 33 0 0 0
SMALL
GASTEIGER

@<TRIPOS>ATOM
      1 N         142.8268  141.4019  161.2532 N.3     1  UNL1       -0.2700
      2 C         141.7043  141.7027  160.3048 C.3     1  UNL1        0.0897
      3 C         140.6177  140.6924  160.0843 C.3     1  UNL1        0.0897
      4 N         140.6536  139.3813  160.8122 N.3     1  UNL1       -0.2700
      5 C         141.7762  139.0805  161.7606 C.3     1  UNL1        0.0897
      6 C         142.8628  140.0908  161.9811 C.3     1  UNL1        0.0897
      7 C         143.9135  142.4121  161.4738 C.3     1  UNL1        0.0769
      8 C         143.8153  143.3826  162.6133 C.3     1  UNL1        0.0437
      9 C         139.8112  144.2948  164.4532 C.ar    1  UNL1        0.2900
     10 C         140.2596  145.0346  163.2278 C.ar    1  UNL1        0.0749
     11 C         141.5942  144.7305  162.6145 C.ar    1  UNL1        0.0021
     12 C         142.4806  143.6866  163.2266 C.ar    1  UNL1       -0.0204
     13 C         142.0323  142.9469  164.4520 C.ar    1  UNL1        0.0021
     14 C         140.6976  143.2510  165.0653 C.ar    1  UNL1        0.0749
     15 O         137.2326  143.9813  164.4999 O.2     1  UNL1        0.0415
     16 N         138.4765  144.5989  165.0665 N.pl3   1  UNL1        0.0809
     17 O         138.3858  145.5206  166.2464 O.co2   1  UNL1       -0.5760
     18 C         139.5670  138.3710  160.5917 C.3     1  UNL1        0.0769
     19 C         138.3594  138.3621  161.4816 C.3     1  UNL1        0.0437
     20 C         138.4955  138.7110  162.9341 C.ar    1  UNL1       -0.0207
     21 C         138.1772  140.0991  163.4050 C.ar    1  UNL1       -0.0027
     22 C         138.3133  140.4480  164.8575 C.ar    1  UNL1        0.0189
     23 C         138.7677  139.4088  165.8390 C.ar    1  UNL1        0.0862
     24 C         139.0861  138.0207  165.3681 C.ar    1  UNL1        0.0189
     25 C         138.9500  137.6717  163.9156 C.ar    1  UNL1       -0.0027
     26 N         138.9038  139.7577  167.2915 N.ar    1  UNL1       -0.1886
     27 C         139.8562  140.7608  167.8719 C.ar    1  UNL1        0.2258
     28 N         139.6524  140.7879  169.3577 N.ar    1  UNL1       -0.1045
     29 N         138.5741  139.8015  169.6957 N.ar    1  UNL1       -0.0222
     30 N         138.1114  139.1648  168.4187 N.ar    1  UNL1       -0.0385
@<TRIPOS>UNITY_ATOM_ATTR
16 1
charge 1
17 1
charge -1
@<TRIPOS>BOND
     1    15    16    2
     2    16    17    1
     3    16     9    1
     4     9    10   ar
     5    10    11   ar
     6    11    12   ar
     7    12     8    1
     8     8     7    1
     9     7     1    1
    10     1     2    1
    11     2     3    1
    12     3     4    1
    13     4    18    1
    14    18    19    1
    15    19    20    1
    16    20    21   ar
    17    21    22   ar
    18    22    23   ar
    19    23    26    1
    20    26    27   ar
    21    27    28   ar
    22    28    29   ar
    23    29    30   ar
    24    23    24   ar
    25    24    25   ar
    26     4     5    1
    27     5     6    1
    28    12    13   ar
    29    13    14   ar
    30    14     9   ar
    31     6     1    1
    32    25    20   ar
    33    30    26   ar
