@<TRIPOS>MOLECULE
*****
 48 53 0 0 0
SMALL
GASTEIGER

@<TRIPOS>ATOM
      1 C         143.0771  141.1331  158.2190 C.2     1  UNL1        0.2459
      2 O         144.2962  141.6030  158.9558 O.2     1  UNL1       -0.2701
      3 N         141.9903  142.1062  157.8696 N.am    1  UNL1       -0.2975
      4 H         141.1902  141.7977  157.3860 H       1  UNL1        0.1499
      5 C         142.6802  136.8039  157.0568 C.ar    1  UNL1        0.0536
      6 C         142.5965  137.2037  158.5001 C.ar    1  UNL1        0.0048
      7 C         142.7288  138.6468  158.8874 C.ar    1  UNL1        0.0047
      8 C         142.9448  139.6901  157.8316 C.ar    1  UNL1        0.0534
      9 C         143.0284  139.2903  156.3882 C.ar    1  UNL1        0.0047
     10 C         142.8961  137.8472  156.0009 C.ar    1  UNL1        0.0048
     11 C         143.3124  131.5299  156.7112 C.ar    1  UNL1        0.0143
     12 C         142.6565  130.4605  155.8890 C.ar    1  UNL1        0.0091
     13 C         141.5739  130.8211  154.9155 C.ar    1  UNL1        0.0698
     14 C         141.1471  132.2512  154.7642 C.ar    1  UNL1        0.0326
     15 C         141.8030  133.3205  155.5864 C.ar    1  UNL1        0.1192
     16 N         141.5942  134.8044  155.6540 N.ar    1  UNL1       -0.2082
     17 C         142.5479  135.3608  156.6694 C.ar    1  UNL1        0.2296
     18 O         143.3460  134.2209  157.2293 O.2     1  UNL1       -0.4349
     19 C         142.8857  132.9599  156.5600 C.ar    1  UNL1        0.1607
     20 C         144.3672  129.8398  158.3789 C.3     1  UNL1        0.0048
     21 C         144.3951  131.1692  157.6848 C.3     1  UNL1        0.0254
     22 C         145.5057  132.1381  157.9641 C.3     1  UNL1        0.0048
     23 C         140.9179  129.7516  154.0931 C.1     1  UNL1        0.1005
     24 N         140.2620  128.6822  153.2709 N.1     1  UNL1       -0.1908
     25 C         142.1226  143.5492  158.2570 C.3     1  UNL1        0.1355
     26 C         141.6365  144.0134  159.5980 C.3     1  UNL1        0.2101
     27 C         141.6594  143.2162  160.8684 C.3     1  UNL1        0.1483
     28 N         141.0792  144.0663  161.9595 N.am    1  UNL1       -0.2059
     29 C         140.6977  145.3889  161.3635 C.2     1  UNL1        0.4098
     30 O         140.0801  146.5418  162.0980 O.2     1  UNL1       -0.2258
     31 O         141.0422  145.3561  159.9039 O.3     1  UNL1       -0.4345
     32 C         140.9101  143.6644  163.3948 C.ar    1  UNL1        0.1400
     33 C         139.5716  143.7984  164.0585 C.ar    1  UNL1        0.0348
     34 C         139.4025  143.3966  165.4937 C.ar    1  UNL1        0.0045
     35 C         140.5719  142.8606  166.2653 C.ar    1  UNL1        0.0222
     36 C         141.9104  142.7267  165.6015 C.ar    1  UNL1        0.1004
     37 N         142.0795  143.1285  164.1664 N.ar    1  UNL1       -0.2287
     38 C         140.4028  142.4588  167.7005 C.ar    1  UNL1        0.0358
     39 C         140.4074  143.5030  168.7772 C.ar    1  UNL1        0.0031
     40 C         140.2383  143.1012  170.2125 C.ar    1  UNL1        0.0002
     41 C         140.0646  141.6550  170.5710 C.ar    1  UNL1        0.0031
     42 C         140.0601  140.6108  169.4942 C.ar    1  UNL1        0.0372
     43 C         140.2292  141.0127  168.0589 C.ar    1  UNL1        0.1468
     44 O         140.2246  139.9684  166.9821 O.3     1  UNL1       -0.4045
     45 C         138.9615  139.6737  166.2285 C.3     1  UNL1        0.5753
     46 F         137.6985  139.3789  165.4749 F       1  UNL1       -0.1328
     47 F         139.6273  140.0892  164.9503 F       1  UNL1       -0.1328
     48 F         138.2958  139.2581  167.5068 F       1  UNL1       -0.1328
@<TRIPOS>BOND
     1    20    21    1
     2    21    22    1
     3    21    11    1
     4    11    12   ar
     5    12    13   ar
     6    13    23    1
     7    23    24    3
     8    13    14   ar
     9    14    15   ar
    10    15    16   ar
    11    16    17   ar
    12    17     5    1
    13     5     6   ar
    14     6     7   ar
    15     7     8   ar
    16     8     1    1
    17     1     2    2
    18     1     3   am
    19     3    25    1
    20    25    26    1
    21    26    27    1
    22    27    28    1
    23    28    32    1
    24    32    33   ar
    25    33    34   ar
    26    34    35   ar
    27    35    38    1
    28    38    39   ar
    29    39    40   ar
    30    40    41   ar
    31    41    42   ar
    32    42    43   ar
    33    43    44    1
    34    44    45    1
    35    45    46    1
    36    45    47    1
    37    45    48    1
    38    35    36   ar
    39    36    37   ar
    40    28    29   am
    41    29    30    2
    42    29    31    1
    43     8     9   ar
    44     9    10   ar
    45    17    18   ar
    46    18    19   ar
    47    19    11   ar
    48    19    15   ar
    49    10     5   ar
    50    31    26    1
    51    37    32   ar
    52    43    38   ar
    53     3     4    1
@<TRIPOS>MOLECULE
*****
 48 53 0 0 0
SMALL
GASTEIGER

@<TRIPOS>ATOM
      1 C         142.4889  140.6300  157.9247 C.2     1  UNL1        0.2459
      2 O         141.1912  141.3215  157.6286 O.2     1  UNL1       -0.2701
      3 N         143.6518  141.4135  158.4573 N.am    1  UNL1       -0.2975
      4 H         144.5035  140.9595  158.6516 H       1  UNL1        0.1499
      5 C         142.8930  136.2047  157.2151 C.ar    1  UNL1        0.0536
      6 C         142.6450  136.7224  158.6009 C.ar    1  UNL1        0.0048
      7 C         142.5103  138.1976  158.8373 C.ar    1  UNL1        0.0047
      8 C         142.6236  139.1549  157.6881 C.ar    1  UNL1        0.0534
      9 C         142.8716  138.6371  156.3024 C.ar    1  UNL1        0.0047
     10 C         143.0063  137.1620  156.0659 C.ar    1  UNL1        0.0048
     11 C         142.1906  131.2283  155.4610 C.ar    1  UNL1        0.0143
     12 C         142.8878  129.9278  155.7304 C.ar    1  UNL1        0.0091
     13 C         144.0488  129.8817  156.6789 C.ar    1  UNL1        0.0698
     14 C         144.5128  131.1361  157.3581 C.ar    1  UNL1        0.0326
     15 C         143.8156  132.4366  157.0887 C.ar    1  UNL1        0.1192
     16 N         144.0463  133.8253  157.6069 N.ar    1  UNL1       -0.2082
     17 C         143.0277  134.7296  156.9785 C.ar    1  UNL1        0.2296
     18 O         142.1676  133.8998  156.0721 O.2     1  UNL1       -0.4349
     19 C         142.6545  132.4827  156.1402 C.ar    1  UNL1        0.1607
     20 C         139.8017  130.4584  154.7897 C.3     1  UNL1        0.0048
     21 C         141.0295  131.2744  154.5125 C.3     1  UNL1        0.0254
     22 C         141.0962  132.1365  153.2867 C.3     1  UNL1        0.0048
     23 C         144.7461  128.5811  156.9483 C.1     1  UNL1        0.1005
     24 N         145.4433  127.2806  157.2177 N.1     1  UNL1       -0.1908
     25 C         143.5171  142.8886  158.6939 C.3     1  UNL1        0.1355
     26 C         142.7960  143.3904  159.9097 C.3     1  UNL1        0.2101
     27 C         142.6989  142.6862  161.2305 C.3     1  UNL1        0.1483
     28 N         141.8883  143.5450  162.1552 N.am    1  UNL1       -0.2059
     29 C         141.4844  144.7802  161.4059 C.2     1  UNL1        0.4098
     30 O         140.6636  145.9121  161.9491 O.2     1  UNL1       -0.2258
     31 O         142.0454  144.6845  160.0181 O.3     1  UNL1       -0.4345
     32 C         141.5423  143.2251  163.5793 C.ar    1  UNL1        0.1400
     33 C         142.6297  142.9041  164.5614 C.ar    1  UNL1        0.0348
     34 C         142.2838  142.5841  165.9854 C.ar    1  UNL1        0.0045
     35 C         140.8504  142.5852  166.4274 C.ar    1  UNL1        0.0222
     36 C         139.7630  142.9062  165.4453 C.ar    1  UNL1        0.1004
     37 N         140.1089  143.2261  164.0213 N.ar    1  UNL1       -0.2287
     38 C         140.5044  142.2652  167.8514 C.ar    1  UNL1        0.0358
     39 C         140.4441  143.3617  168.8732 C.ar    1  UNL1        0.0031
     40 C         140.0982  143.0418  170.2972 C.ar    1  UNL1        0.0002
     41 C         139.8125  141.6253  170.6996 C.ar    1  UNL1        0.0031
     42 C         139.8727  140.5287  169.6778 C.ar    1  UNL1        0.0372
     43 C         140.2187  140.8487  168.2538 C.ar    1  UNL1        0.1468
     44 O         140.2790  139.7522  167.2320 O.3     1  UNL1       -0.4045
     45 C         139.0509  139.3845  166.4530 C.3     1  UNL1        0.5753
     46 F         137.8229  139.0169  165.6741 F       1  UNL1       -0.1328
     47 F         139.8085  139.5690  165.1717 F       1  UNL1       -0.1328
     48 F         138.2934  139.2001  167.7344 F       1  UNL1       -0.1328
@<TRIPOS>BOND
     1    20    21    1
     2    21    22    1
     3    21    11    1
     4    11    12   ar
     5    12    13   ar
     6    13    23    1
     7    23    24    3
     8    13    14   ar
     9    14    15   ar
    10    15    16   ar
    11    16    17   ar
    12    17     5    1
    13     5     6   ar
    14     6     7   ar
    15     7     8   ar
    16     8     1    1
    17     1     2    2
    18     1     3   am
    19     3    25    1
    20    25    26    1
    21    26    27    1
    22    27    28    1
    23    28    32    1
    24    32    33   ar
    25    33    34   ar
    26    34    35   ar
    27    35    38    1
    28    38    39   ar
    29    39    40   ar
    30    40    41   ar
    31    41    42   ar
    32    42    43   ar
    33    43    44    1
    34    44    45    1
    35    45    46    1
    36    45    47    1
    37    45    48    1
    38    35    36   ar
    39    36    37   ar
    40    28    29   am
    41    29    30    2
    42    29    31    1
    43     8     9   ar
    44     9    10   ar
    45    17    18   ar
    46    18    19   ar
    47    19    11   ar
    48    19    15   ar
    49    10     5   ar
    50    31    26    1
    51    37    32   ar
    52    43    38   ar
    53     3     4    1
@<TRIPOS>MOLECULE
*****
 48 53 0 0 0
SMALL
GASTEIGER

@<TRIPOS>ATOM
      1 C         141.3383  139.7542  157.9109 C.2     1  UNL1        0.2459
      2 O         139.9665  140.0898  158.4163 O.2     1  UNL1       -0.2701
      3 N         142.3902  140.8206  157.8317 N.am    1  UNL1       -0.2975
      4 H         143.2905  140.6002  157.5000 H       1  UNL1        0.1499
      5 C         142.2979  135.5477  156.6320 C.ar    1  UNL1        0.0536
      6 C         142.9989  136.1509  157.8130 C.ar    1  UNL1        0.0048
      7 C         142.6790  137.5531  158.2393 C.ar    1  UNL1        0.0047
      8 C         141.6581  138.3520  157.4846 C.ar    1  UNL1        0.0534
      9 C         140.9572  137.7488  156.3036 C.ar    1  UNL1        0.0047
     10 C         141.2771  136.3467  155.8773 C.ar    1  UNL1        0.0048
     11 C         141.9634  130.5801  154.7493 C.ar    1  UNL1        0.0143
     12 C         142.9522  129.4626  154.5957 C.ar    1  UNL1        0.0091
     13 C         144.3757  129.6563  155.0268 C.ar    1  UNL1        0.0698
     14 C         144.8105  130.9674  155.6116 C.ar    1  UNL1        0.0326
     15 C         143.8217  132.0848  155.7653 C.ar    1  UNL1        0.1192
     16 N         143.9575  133.4782  156.3039 N.ar    1  UNL1       -0.2082
     17 C         142.6178  134.1456  156.2057 C.ar    1  UNL1        0.2296
     18 O         141.6541  133.1648  155.6063 O.2     1  UNL1       -0.4349
     19 C         142.3982  131.8912  155.3341 C.ar    1  UNL1        0.1607
     20 C         139.9747  131.2147  153.2025 C.3     1  UNL1        0.0048
     21 C         140.5398  130.3864  154.3181 C.3     1  UNL1        0.0254
     22 C         139.6812  129.3644  155.0027 C.3     1  UNL1        0.0048
     23 C         145.3645  128.5388  154.8732 C.1     1  UNL1        0.1005
     24 N         146.3533  127.4213  154.7196 N.1     1  UNL1       -0.1908
     25 C         142.0703  142.2227  158.2581 C.3     1  UNL1        0.1355
     26 C         142.3413  142.6583  159.6676 C.3     1  UNL1        0.2101
     27 C         141.6161  142.1839  160.8919 C.3     1  UNL1        0.1483
     28 N         142.2116  142.8772  162.0812 N.am    1  UNL1       -0.2059
     29 C         143.3050  143.7801  161.5920 C.2     1  UNL1        0.4098
     30 O         144.1669  144.6633  162.4448 O.2     1  UNL1       -0.2258
     31 O         143.3851  143.6448  160.1002 O.3     1  UNL1       -0.4345
     32 C         141.7882  142.6989  163.5091 C.ar    1  UNL1        0.1400
     33 C         140.4363  143.1714  163.9551 C.ar    1  UNL1        0.0348
     34 C         140.0128  142.9932  165.3830 C.ar    1  UNL1        0.0045
     35 C         140.9414  142.3424  166.3650 C.ar    1  UNL1        0.0222
     36 C         142.2934  141.8699  165.9189 C.ar    1  UNL1        0.1004
     37 N         142.7168  142.0481  164.4911 N.ar    1  UNL1       -0.2287
     38 C         140.5180  142.1641  167.7928 C.ar    1  UNL1        0.0358
     39 C         140.5462  143.3311  168.7348 C.ar    1  UNL1        0.0031
     40 C         140.1228  143.1528  170.1627 C.ar    1  UNL1        0.0002
     41 C         139.6711  141.8075  170.6487 C.ar    1  UNL1        0.0031
     42 C         139.6429  140.6405  169.7068 C.ar    1  UNL1        0.0372
     43 C         140.0663  140.8188  168.2788 C.ar    1  UNL1        0.1468
     44 O         140.0381  139.6518  167.3369 O.3     1  UNL1       -0.4045
     45 C         138.8574  139.4441  166.4352 C.3     1  UNL1        0.5753
     46 F         137.6768  139.2364  165.5335 F       1  UNL1       -0.1328
     47 F         137.9799  139.2322  167.6331 F       1  UNL1       -0.1328
     48 F         139.7350  139.6560  165.2373 F       1  UNL1       -0.1328
@<TRIPOS>BOND
     1    20    21    1
     2    21    22    1
     3    21    11    1
     4    11    12   ar
     5    12    13   ar
     6    13    23    1
     7    23    24    3
     8    13    14   ar
     9    14    15   ar
    10    15    16   ar
    11    16    17   ar
    12    17     5    1
    13     5     6   ar
    14     6     7   ar
    15     7     8   ar
    16     8     1    1
    17     1     2    2
    18     1     3   am
    19     3    25    1
    20    25    26    1
    21    26    27    1
    22    27    28    1
    23    28    32    1
    24    32    33   ar
    25    33    34   ar
    26    34    35   ar
    27    35    38    1
    28    38    39   ar
    29    39    40   ar
    30    40    41   ar
    31    41    42   ar
    32    42    43   ar
    33    43    44    1
    34    44    45    1
    35    45    46    1
    36    45    47    1
    37    45    48    1
    38    35    36   ar
    39    36    37   ar
    40    28    29   am
    41    29    30    2
    42    29    31    1
    43     8     9   ar
    44     9    10   ar
    45    17    18   ar
    46    18    19   ar
    47    19    11   ar
    48    19    15   ar
    49    10     5   ar
    50    31    26    1
    51    37    32   ar
    52    43    38   ar
    53     3     4    1
@<TRIPOS>MOLECULE
*****
 48 53 0 0 0
SMALL
GASTEIGER

@<TRIPOS>ATOM
      1 C         143.5886  139.3811  156.5560 C.2     1  UNL1        0.2459
      2 O         143.5933  140.3825  155.4393 O.2     1  UNL1       -0.2701
      3 N         143.9295  139.8123  157.9516 N.am    1  UNL1       -0.2975
      4 H         143.9264  139.1550  158.6846 H       1  UNL1        0.1499
      5 C         142.5520  135.0828  155.7191 C.ar    1  UNL1        0.0536
      6 C         143.9134  135.6074  155.3709 C.ar    1  UNL1        0.0048
      7 C         144.2589  137.0402  155.6499 C.ar    1  UNL1        0.0047
      8 C         143.2430  137.9483  156.2771 C.ar    1  UNL1        0.0534
      9 C         141.8816  137.4237  156.6252 C.ar    1  UNL1        0.0047
     10 C         141.5361  135.9909  156.3462 C.ar    1  UNL1        0.0048
     11 C         142.5008  129.7604  155.6562 C.ar    1  UNL1        0.0143
     12 C         141.6388  128.7416  154.9712 C.ar    1  UNL1        0.0091
     13 C         140.5136  129.1857  154.0844 C.ar    1  UNL1        0.0698
     14 C         140.2501  130.6485  153.8825 C.ar    1  UNL1        0.0326
     15 C         141.1120  131.6673  154.5675 C.ar    1  UNL1        0.1192
     16 N         141.0929  133.1671  154.5587 N.ar    1  UNL1       -0.2082
     17 C         142.2064  133.6500  155.4401 C.ar    1  UNL1        0.2296
     18 O         142.9137  132.4486  155.9937 O.2     1  UNL1       -0.4349
     19 C         142.2374  131.2232  155.4543 C.ar    1  UNL1        0.1607
     20 C         143.5649  129.5757  158.0191 C.3     1  UNL1        0.0048
     21 C         143.6261  129.3163  156.5430 C.3     1  UNL1        0.0254
     22 C         144.8126  128.6127  155.9536 C.3     1  UNL1        0.0048
     23 C         139.6516  128.1668  153.3993 C.1     1  UNL1        0.1005
     24 N         138.7897  127.1481  152.7144 N.1     1  UNL1       -0.1908
     25 C         144.2750  141.2451  158.2306 C.3     1  UNL1        0.1355
     26 C         144.1076  141.8014  159.6135 C.3     1  UNL1        0.2101
     27 C         143.5274  141.0761  160.7913 C.3     1  UNL1        0.1483
     28 N         143.5521  142.0071  161.9671 N.am    1  UNL1       -0.2059
     29 C         144.1477  143.3079  161.5160 C.2     1  UNL1        0.4098
     30 O         144.3623  144.5225  162.3696 O.2     1  UNL1       -0.2258
     31 O         144.4910  143.1806  160.0613 O.3     1  UNL1       -0.4345
     32 C         143.0666  141.6927  163.3511 C.ar    1  UNL1        0.1400
     33 C         143.5387  140.4508  164.0474 C.ar    1  UNL1        0.0348
     34 C         143.0531  140.1364  165.4314 C.ar    1  UNL1        0.0045
     35 C         142.0956  141.0638  166.1191 C.ar    1  UNL1        0.0222
     36 C         141.6236  142.3057  165.4227 C.ar    1  UNL1        0.1004
     37 N         142.1091  142.6201  164.0388 N.ar    1  UNL1       -0.2287
     38 C         141.6101  140.7494  167.5030 C.ar    1  UNL1        0.0358
     39 C         142.5339  140.9026  168.6748 C.ar    1  UNL1        0.0031
     40 C         142.0484  140.5882  170.0588 C.ar    1  UNL1        0.0002
     41 C         140.6391  140.1205  170.2710 C.ar    1  UNL1        0.0031
     42 C         139.7153  139.9672  169.0992 C.ar    1  UNL1        0.0372
     43 C         140.2008  140.2817  167.7152 C.ar    1  UNL1        0.1468
     44 O         139.2770  140.1284  166.5435 O.3     1  UNL1       -0.4045
     45 C         138.8084  138.7644  166.1311 C.3     1  UNL1        0.5753
     46 F         138.3399  137.4004  165.7188 F       1  UNL1       -0.1328
     47 F         137.4489  139.0624  166.6903 F       1  UNL1       -0.1328
     48 F         140.1680  138.4665  165.5719 F       1  UNL1       -0.1328
@<TRIPOS>BOND
     1    20    21    1
     2    21    22    1
     3    21    11    1
     4    11    12   ar
     5    12    13   ar
     6    13    23    1
     7    23    24    3
     8    13    14   ar
     9    14    15   ar
    10    15    16   ar
    11    16    17   ar
    12    17     5    1
    13     5     6   ar
    14     6     7   ar
    15     7     8   ar
    16     8     1    1
    17     1     2    2
    18     1     3   am
    19     3    25    1
    20    25    26    1
    21    26    27    1
    22    27    28    1
    23    28    32    1
    24    32    33   ar
    25    33    34   ar
    26    34    35   ar
    27    35    38    1
    28    38    39   ar
    29    39    40   ar
    30    40    41   ar
    31    41    42   ar
    32    42    43   ar
    33    43    44    1
    34    44    45    1
    35    45    46    1
    36    45    47    1
    37    45    48    1
    38    35    36   ar
    39    36    37   ar
    40    28    29   am
    41    29    30    2
    42    29    31    1
    43     8     9   ar
    44     9    10   ar
    45    17    18   ar
    46    18    19   ar
    47    19    11   ar
    48    19    15   ar
    49    10     5   ar
    50    31    26    1
    51    37    32   ar
    52    43    38   ar
    53     3     4    1
@<TRIPOS>MOLECULE
*****
 48 53 0 0 0
SMALL
GASTEIGER

@<TRIPOS>ATOM
      1 C         139.2120  141.3142  157.6876 C.2     1  UNL1        0.2459
      2 O         139.2407  140.0163  156.9362 O.2     1  UNL1       -0.2701
      3 N         138.7764  142.5719  156.9959 N.am    1  UNL1       -0.2975
      4 H         138.7576  143.4237  157.4891 H       1  UNL1        0.1499
      5 C         140.4330  141.4346  162.0172 C.ar    1  UNL1        0.0536
      6 C         141.4184  141.0033  160.9718 C.ar    1  UNL1        0.0048
      7 C         141.0113  140.9632  159.5286 C.ar    1  UNL1        0.0047
      8 C         139.6189  141.3544  159.1308 C.ar    1  UNL1        0.0534
      9 C         138.6335  141.7857  160.1762 C.ar    1  UNL1        0.0047
     10 C         139.0406  141.8258  161.6194 C.ar    1  UNL1        0.0048
     11 C         140.6005  140.7760  167.2966 C.ar    1  UNL1        0.0143
     12 C         141.5620  141.2084  168.3636 C.ar    1  UNL1        0.0091
     13 C         142.7800  142.0037  167.9980 C.ar    1  UNL1        0.0698
     14 C         143.0367  142.3667  166.5654 C.ar    1  UNL1        0.0326
     15 C         142.0752  141.9342  165.4984 C.ar    1  UNL1        0.1192
     16 N         142.0646  142.1418  164.0128 N.ar    1  UNL1       -0.2082
     17 C         140.8399  141.4748  163.4604 C.ar    1  UNL1        0.2296
     18 O         140.0936  140.8549  164.6044 O.2     1  UNL1       -0.4349
     19 C         140.8571  141.1389  165.8640 C.ar    1  UNL1        0.1607
     20 C         138.6712  139.1745  166.6162 C.3     1  UNL1        0.0048
     21 C         139.3824  139.9806  167.6622 C.3     1  UNL1        0.0254
     22 C         138.8755  139.9914  169.0740 C.3     1  UNL1        0.0048
     23 C         143.7415  142.4362  169.0651 C.1     1  UNL1        0.1005
     24 N         144.7030  142.8687  170.1321 N.1     1  UNL1       -0.1908
     25 C         138.3694  142.5317  155.5527 C.3     1  UNL1        0.1355
     26 C         136.9943  142.0676  155.1739 C.3     1  UNL1        0.2101
     27 C         136.0230  141.3620  156.0732 C.3     1  UNL1        0.1483
     28 N         134.7774  141.0859  155.2844 N.am    1  UNL1       -0.2059
     29 C         134.9789  141.6208  153.8975 C.2     1  UNL1        0.4098
     30 O         133.9848  141.5597  152.7759 O.2     1  UNL1       -0.2258
     31 O         136.3490  142.2275  153.8293 O.3     1  UNL1       -0.4345
     32 C         133.5464  140.3959  155.7931 C.ar    1  UNL1        0.1400
     33 C         132.2299  141.1147  155.7936 C.ar    1  UNL1        0.0348
     34 C         130.9989  140.4248  156.3022 C.ar    1  UNL1        0.0045
     35 C         131.0845  139.0161  156.8104 C.ar    1  UNL1        0.0222
     36 C         132.4011  138.2974  156.8098 C.ar    1  UNL1        0.1004
     37 N         133.6320  138.9872  156.3012 N.ar    1  UNL1       -0.2287
     38 C         129.8536  138.3262  157.3190 C.ar    1  UNL1        0.0358
     39 C         129.7541  137.9390  158.7647 C.ar    1  UNL1        0.0031
     40 C         128.5231  137.2491  159.2734 C.ar    1  UNL1        0.0002
     41 C         127.3916  136.9463  158.3363 C.ar    1  UNL1        0.0031
     42 C         127.4911  137.3335  156.8906 C.ar    1  UNL1        0.0372
     43 C         128.7221  138.0234  156.3819 C.ar    1  UNL1        0.1468
     44 O         128.8216  138.4106  154.9362 O.3     1  UNL1       -0.4045
     45 C         127.8246  139.3624  154.3443 C.3     1  UNL1        0.5753
     46 F         126.8277  140.3141  153.7523 F       1  UNL1       -0.1328
     47 F         127.8565  140.1782  155.6025 F       1  UNL1       -0.1328
     48 F         127.7929  138.5465  153.0860 F       1  UNL1       -0.1328
@<TRIPOS>BOND
     1    20    21    1
     2    21    22    1
     3    21    11    1
     4    11    12   ar
     5    12    13   ar
     6    13    23    1
     7    23    24    3
     8    13    14   ar
     9    14    15   ar
    10    15    16   ar
    11    16    17   ar
    12    17     5    1
    13     5     6   ar
    14     6     7   ar
    15     7     8   ar
    16     8     1    1
    17     1     2    2
    18     1     3   am
    19     3    25    1
    20    25    26    1
    21    26    27    1
    22    27    28    1
    23    28    32    1
    24    32    33   ar
    25    33    34   ar
    26    34    35   ar
    27    35    38    1
    28    38    39   ar
    29    39    40   ar
    30    40    41   ar
    31    41    42   ar
    32    42    43   ar
    33    43    44    1
    34    44    45    1
    35    45    46    1
    36    45    47    1
    37    45    48    1
    38    35    36   ar
    39    36    37   ar
    40    28    29   am
    41    29    30    2
    42    29    31    1
    43     8     9   ar
    44     9    10   ar
    45    17    18   ar
    46    18    19   ar
    47    19    11   ar
    48    19    15   ar
    49    10     5   ar
    50    31    26    1
    51    37    32   ar
    52    43    38   ar
    53     3     4    1
@<TRIPOS>MOLECULE
*****
 48 53 0 0 0
SMALL
GASTEIGER

@<TRIPOS>ATOM
      1 C         142.3742  138.9193  159.7763 C.2     1  UNL1        0.2459
      2 O         143.8534  138.7771  159.5727 O.2     1  UNL1       -0.2701
      3 N         141.4503  138.9121  158.5946 N.am    1  UNL1       -0.2975
      4 H         140.4794  139.0055  158.7283 H       1  UNL1        0.1499
      5 C         140.7081  139.3679  163.9324 C.ar    1  UNL1        0.0536
      6 C         141.5840  140.4404  163.3557 C.ar    1  UNL1        0.0048
      7 C         142.1394  140.2908  161.9703 C.ar    1  UNL1        0.0047
      8 C         141.8188  139.0688  161.1616 C.ar    1  UNL1        0.0534
      9 C         140.9429  137.9964  161.7383 C.ar    1  UNL1        0.0047
     10 C         140.3875  138.1460  163.1237 C.ar    1  UNL1        0.0048
     11 C         139.8685  140.9007  168.9603 C.ar    1  UNL1        0.0143
     12 C         138.8619  140.5183  170.0045 C.ar    1  UNL1        0.0091
     13 C         137.8106  139.4946  169.6936 C.ar    1  UNL1        0.0698
     14 C         137.7658  138.8532  168.3383 C.ar    1  UNL1        0.0326
     15 C         138.7725  139.2356  167.2941 C.ar    1  UNL1        0.1192
     16 N         138.9757  138.7771  165.8804 N.ar    1  UNL1       -0.2082
     17 C         140.1527  139.5174  165.3177 C.ar    1  UNL1        0.2296
     18 O         140.6768  140.4335  166.3836 O.2     1  UNL1       -0.4349
     19 C         139.8238  140.2593  167.6051 C.ar    1  UNL1        0.1607
     20 C         140.5631  143.3811  169.2996 C.3     1  UNL1        0.0048
     21 C         140.9198  141.9244  169.2713 C.3     1  UNL1        0.0254
     22 C         142.3280  141.4914  169.5540 C.3     1  UNL1        0.0048
     23 C         136.8039  139.1122  170.7379 C.1     1  UNL1        0.1005
     24 N         135.7973  138.7298  171.7822 N.1     1  UNL1       -0.1908
     25 C         142.0057  138.7627  157.2092 C.3     1  UNL1        0.1355
     26 C         141.8809  137.4531  156.4884 C.3     1  UNL1        0.2101
     27 C         142.6317  136.1949  156.8097 C.3     1  UNL1        0.1483
     28 N         142.1983  135.1361  155.8397 N.am    1  UNL1       -0.2059
     29 C         141.1796  135.7399  154.9189 C.2     1  UNL1        0.4098
     30 O         140.4799  135.0353  153.7946 O.2     1  UNL1       -0.2258
     31 O         140.9835  137.1719  155.3200 O.3     1  UNL1       -0.4345
     32 C         142.6962  133.7217  155.7977 C.ar    1  UNL1        0.1400
     33 C         141.7796  132.6165  155.3637 C.ar    1  UNL1        0.0348
     34 C         142.2774  131.2022  155.3217 C.ar    1  UNL1        0.0045
     35 C         143.6918  130.8930  155.7139 C.ar    1  UNL1        0.0222
     36 C         144.6084  131.9982  156.1479 C.ar    1  UNL1        0.1004
     37 N         144.1106  133.4125  156.1899 N.ar    1  UNL1       -0.2287
     38 C         144.1896  129.4787  155.6719 C.ar    1  UNL1        0.0358
     39 C         145.0052  129.0049  154.5056 C.ar    1  UNL1        0.0031
     40 C         145.5031  127.5905  154.4637 C.ar    1  UNL1        0.0002
     41 C         145.1853  126.6499  155.5880 C.ar    1  UNL1        0.0031
     42 C         144.3696  127.1237  156.7543 C.ar    1  UNL1        0.0372
     43 C         143.8718  128.5380  156.7963 C.ar    1  UNL1        0.1468
     44 O         143.0562  129.0118  157.9626 O.3     1  UNL1       -0.4045
     45 C         143.5498  128.7914  159.3619 C.3     1  UNL1        0.5753
     46 F         144.0434  128.5711  160.7611 F       1  UNL1       -0.1328
     47 F         142.3372  127.9599  159.6586 F       1  UNL1       -0.1328
     48 F         144.7624  129.6230  159.0651 F       1  UNL1       -0.1328
@<TRIPOS>BOND
     1    20    21    1
     2    21    22    1
     3    21    11    1
     4    11    12   ar
     5    12    13   ar
     6    13    23    1
     7    23    24    3
     8    13    14   ar
     9    14    15   ar
    10    15    16   ar
    11    16    17   ar
    12    17     5    1
    13     5     6   ar
    14     6     7   ar
    15     7     8   ar
    16     8     1    1
    17     1     2    2
    18     1     3   am
    19     3    25    1
    20    25    26    1
    21    26    27    1
    22    27    28    1
    23    28    32    1
    24    32    33   ar
    25    33    34   ar
    26    34    35   ar
    27    35    38    1
    28    38    39   ar
    29    39    40   ar
    30    40    41   ar
    31    41    42   ar
    32    42    43   ar
    33    43    44    1
    34    44    45    1
    35    45    46    1
    36    45    47    1
    37    45    48    1
    38    35    36   ar
    39    36    37   ar
    40    28    29   am
    41    29    30    2
    42    29    31    1
    43     8     9   ar
    44     9    10   ar
    45    17    18   ar
    46    18    19   ar
    47    19    11   ar
    48    19    15   ar
    49    10     5   ar
    50    31    26    1
    51    37    32   ar
    52    43    38   ar
    53     3     4    1
@<TRIPOS>MOLECULE
*****
 48 53 0 0 0
SMALL
GASTEIGER

@<TRIPOS>ATOM
      1 C         142.1466  139.5638  155.5723 C.2     1  UNL1        0.2459
      2 O         140.7655  140.1458  155.5095 O.2     1  UNL1       -0.2701
      3 N         143.3409  140.4700  155.6203 N.am    1  UNL1       -0.2975
      4 H         144.2474  140.0880  155.6614 H       1  UNL1        0.1499
      5 C         142.7066  135.0990  155.6164 C.ar    1  UNL1        0.0536
      6 C         141.3247  135.6812  155.5790 C.ar    1  UNL1        0.0048
      7 C         141.1381  137.1695  155.5643 C.ar    1  UNL1        0.0047
      8 C         142.3333  138.0756  155.5870 C.ar    1  UNL1        0.0534
      9 C         143.7152  137.4934  155.6243 C.ar    1  UNL1        0.0047
     10 C         143.9018  136.0050  155.6390 C.ar    1  UNL1        0.0048
     11 C         141.9217  129.8491  155.2206 C.ar    1  UNL1        0.0143
     12 C         142.7936  128.6515  155.4562 C.ar    1  UNL1        0.0091
     13 C         144.2141  128.8341  155.9020 C.ar    1  UNL1        0.0698
     14 C         144.7628  130.2143  156.1122 C.ar    1  UNL1        0.0326
     15 C         143.8908  131.4118  155.8765 C.ar    1  UNL1        0.1192
     16 N         144.1523  132.8837  156.0003 N.ar    1  UNL1       -0.2082
     17 C         142.8933  133.6107  155.6310 C.ar    1  UNL1        0.2296
     18 O         141.8538  132.5882  155.2790 O.2     1  UNL1       -0.4349
     19 C         142.4703  131.2292  155.4307 C.ar    1  UNL1        0.1607
     20 C         139.6355  128.6332  155.4328 C.3     1  UNL1        0.0048
     21 C         140.5011  129.6665  154.7748 C.3     1  UNL1        0.0254
     22 C         139.9462  130.5172  153.6709 C.3     1  UNL1        0.0048
     23 C         145.0861  127.6364  156.1376 C.1     1  UNL1        0.1005
     24 N         145.9580  126.4388  156.3732 N.1     1  UNL1       -0.1908
     25 C         143.1542  141.9583  155.6056 C.3     1  UNL1        0.1355
     26 C         142.8431  142.6878  156.8788 C.3     1  UNL1        0.2101
     27 C         142.8745  142.1034  158.2599 C.3     1  UNL1        0.1483
     28 N         142.4967  143.1841  159.2291 N.am    1  UNL1       -0.2059
     29 C         142.2318  144.4364  158.4470 C.2     1  UNL1        0.4098
     30 O         141.8244  145.7626  159.0173 O.2     1  UNL1       -0.2258
     31 O         142.4459  144.1295  156.9944 O.3     1  UNL1       -0.4345
     32 C         142.4007  143.0382  160.7189 C.ar    1  UNL1        0.1400
     33 C         141.9501  141.7389  161.3178 C.ar    1  UNL1        0.0348
     34 C         141.8541  141.5930  162.8076 C.ar    1  UNL1        0.0045
     35 C         142.2087  142.7465  163.6986 C.ar    1  UNL1        0.0222
     36 C         142.6593  144.0458  163.0996 C.ar    1  UNL1        0.1004
     37 N         142.7553  144.1917  161.6099 N.ar    1  UNL1       -0.2287
     38 C         142.1126  142.6006  165.1883 C.ar    1  UNL1        0.0358
     39 C         143.3596  142.4603  166.0101 C.ar    1  UNL1        0.0031
     40 C         143.2636  142.3144  167.4999 C.ar    1  UNL1        0.0002
     41 C         141.9206  142.3088  168.1679 C.ar    1  UNL1        0.0031
     42 C         140.6736  142.4490  167.3461 C.ar    1  UNL1        0.0372
     43 C         140.7696  142.5949  165.8563 C.ar    1  UNL1        0.1468
     44 O         139.5227  142.7351  165.0345 O.3     1  UNL1       -0.4045
     45 C         139.1640  144.0632  164.4363 C.3     1  UNL1        0.5753
     46 F         138.8054  145.3912  163.8382 F       1  UNL1       -0.1328
     47 F         139.2167  143.4594  163.0643 F       1  UNL1       -0.1328
     48 F         139.1114  144.6670  165.8084 F       1  UNL1       -0.1328
@<TRIPOS>BOND
     1    20    21    1
     2    21    22    1
     3    21    11    1
     4    11    12   ar
     5    12    13   ar
     6    13    23    1
     7    23    24    3
     8    13    14   ar
     9    14    15   ar
    10    15    16   ar
    11    16    17   ar
    12    17     5    1
    13     5     6   ar
    14     6     7   ar
    15     7     8   ar
    16     8     1    1
    17     1     2    2
    18     1     3   am
    19     3    25    1
    20    25    26    1
    21    26    27    1
    22    27    28    1
    23    28    32    1
    24    32    33   ar
    25    33    34   ar
    26    34    35   ar
    27    35    38    1
    28    38    39   ar
    29    39    40   ar
    30    40    41   ar
    31    41    42   ar
    32    42    43   ar
    33    43    44    1
    34    44    45    1
    35    45    46    1
    36    45    47    1
    37    45    48    1
    38    35    36   ar
    39    36    37   ar
    40    28    29   am
    41    29    30    2
    42    29    31    1
    43     8     9   ar
    44     9    10   ar
    45    17    18   ar
    46    18    19   ar
    47    19    11   ar
    48    19    15   ar
    49    10     5   ar
    50    31    26    1
    51    37    32   ar
    52    43    38   ar
    53     3     4    1
@<TRIPOS>MOLECULE
*****
 48 53 0 0 0
SMALL
GASTEIGER

@<TRIPOS>ATOM
      1 C         138.4496  140.5413  158.2648 C.2     1  UNL1        0.2459
      2 O         136.9993  140.2492  158.0175 O.2     1  UNL1       -0.2701
      3 N         139.3940  140.6831  157.1081 N.am    1  UNL1       -0.2975
      4 H         140.3459  140.8748  157.2705 H       1  UNL1        0.1499
      5 C         139.9674  140.9920  162.4771 C.ar    1  UNL1        0.0536
      6 C         140.8271  141.4105  161.3214 C.ar    1  UNL1        0.0048
      7 C         140.3211  141.2603  159.9173 C.ar    1  UNL1        0.0047
      8 C         138.9555  140.6915  159.6689 C.ar    1  UNL1        0.0534
      9 C         138.0959  140.2729  160.8247 C.ar    1  UNL1        0.0047
     10 C         138.6019  140.4232  162.2288 C.ar    1  UNL1        0.0048
     11 C         140.4776  140.7849  167.7716 C.ar    1  UNL1        0.0143
     12 C         141.5219  141.2742  168.7307 C.ar    1  UNL1        0.0091
     13 C         142.7343  141.9926  168.2170 C.ar    1  UNL1        0.0698
     14 C         142.9024  142.2218  166.7442 C.ar    1  UNL1        0.0326
     15 C         141.8581  141.7325  165.7850 C.ar    1  UNL1        0.1192
     16 N         141.7516  141.8117  164.2909 N.ar    1  UNL1       -0.2082
     17 C         140.4734  141.1422  163.8812 C.ar    1  UNL1        0.2296
     18 O         139.7899  140.6492  165.1221 O.2     1  UNL1       -0.4349
     19 C         140.6457  141.0140  166.2988 C.ar    1  UNL1        0.1607
     20 C         138.4942  139.1534  167.3787 C.3     1  UNL1        0.0048
     21 C         139.2652  140.0664  168.2853 C.3     1  UNL1        0.0254
     22 C         138.8238  140.2609  169.7057 C.3     1  UNL1        0.0048
     23 C         143.7786  142.4820  169.1762 C.1     1  UNL1        0.1005
     24 N         144.8230  142.9713  170.1354 N.1     1  UNL1       -0.1908
     25 C         138.8881  140.5329  155.7040 C.3     1  UNL1        0.1355
     26 C         139.0181  139.2166  154.9968 C.3     1  UNL1        0.2101
     27 C         140.0640  138.1740  155.2597 C.3     1  UNL1        0.1483
     28 N         139.8175  137.0248  154.3279 N.am    1  UNL1       -0.2059
     29 C         138.6192  137.3571  153.4889 C.2     1  UNL1        0.4098
     30 O         138.0201  136.4874  152.4236 O.2     1  UNL1       -0.2258
     31 O         138.1252  138.7117  153.9024 O.3     1  UNL1       -0.4345
     32 C         140.6271  135.7645  154.2487 C.ar    1  UNL1        0.1400
     33 C         141.3011  135.3855  152.9634 C.ar    1  UNL1        0.0348
     34 C         142.1107  134.1252  152.8843 C.ar    1  UNL1        0.0045
     35 C         142.2463  133.2439  154.0905 C.ar    1  UNL1        0.0222
     36 C         141.5722  133.6229  155.3758 C.ar    1  UNL1        0.1004
     37 N         140.7626  134.8831  155.4549 N.ar    1  UNL1       -0.2287
     38 C         143.0558  131.9837  154.0113 C.ar    1  UNL1        0.0358
     39 C         143.3118  131.3389  152.6814 C.ar    1  UNL1        0.0031
     40 C         144.1213  130.0786  152.6022 C.ar    1  UNL1        0.0002
     41 C         144.6750  129.4631  153.8531 C.ar    1  UNL1        0.0031
     42 C         144.4190  130.1078  155.1830 C.ar    1  UNL1        0.0372
     43 C         143.6094  131.3681  155.2621 C.ar    1  UNL1        0.1468
     44 O         143.3535  132.0128  156.5921 O.3     1  UNL1       -0.4045
     45 C         144.5050  132.3997  157.4721 C.3     1  UNL1        0.5753
     46 F         145.6565  132.7866  158.3521 F       1  UNL1       -0.1328
     47 F         144.4729  131.0428  158.1105 F       1  UNL1       -0.1328
     48 F         144.5371  133.7566  156.8336 F       1  UNL1       -0.1328
@<TRIPOS>BOND
     1    20    21    1
     2    21    22    1
     3    21    11    1
     4    11    12   ar
     5    12    13   ar
     6    13    23    1
     7    23    24    3
     8    13    14   ar
     9    14    15   ar
    10    15    16   ar
    11    16    17   ar
    12    17     5    1
    13     5     6   ar
    14     6     7   ar
    15     7     8   ar
    16     8     1    1
    17     1     2    2
    18     1     3   am
    19     3    25    1
    20    25    26    1
    21    26    27    1
    22    27    28    1
    23    28    32    1
    24    32    33   ar
    25    33    34   ar
    26    34    35   ar
    27    35    38    1
    28    38    39   ar
    29    39    40   ar
    30    40    41   ar
    31    41    42   ar
    32    42    43   ar
    33    43    44    1
    34    44    45    1
    35    45    46    1
    36    45    47    1
    37    45    48    1
    38    35    36   ar
    39    36    37   ar
    40    28    29   am
    41    29    30    2
    42    29    31    1
    43     8     9   ar
    44     9    10   ar
    45    17    18   ar
    46    18    19   ar
    47    19    11   ar
    48    19    15   ar
    49    10     5   ar
    50    31    26    1
    51    37    32   ar
    52    43    38   ar
    53     3     4    1
@<TRIPOS>MOLECULE
*****
 48 53 0 0 0
SMALL
GASTEIGER

@<TRIPOS>ATOM
      1 C         143.6796  139.3088  154.5885 C.2     1  UNL1        0.2459
      2 O         145.1030  139.7536  154.7501 O.2     1  UNL1       -0.2701
      3 N         142.6036  140.3194  154.3223 N.am    1  UNL1       -0.2975
      4 H         141.6694  140.0274  154.2162 H       1  UNL1        0.1499
      5 C         142.6376  134.9423  154.9022 C.ar    1  UNL1        0.0536
      6 C         143.8098  135.4900  155.6611 C.ar    1  UNL1        0.0048
      7 C         144.1571  136.9456  155.5565 C.ar    1  UNL1        0.0047
      8 C         143.3323  137.8533  154.6930 C.ar    1  UNL1        0.0534
      9 C         142.1600  137.3056  153.9342 C.ar    1  UNL1        0.0047
     10 C         141.8128  135.8501  154.0388 C.ar    1  UNL1        0.0048
     11 C         142.8133  129.7035  155.8284 C.ar    1  UNL1        0.0143
     12 C         141.8333  128.5846  155.6340 C.ar    1  UNL1        0.0091
     13 C         140.4752  128.8677  155.0639 C.ar    1  UNL1        0.0698
     14 C         140.0968  130.2698  154.6882 C.ar    1  UNL1        0.0326
     15 C         141.0767  131.3887  154.8827 C.ar    1  UNL1        0.1192
     16 N         140.9873  132.8604  154.6071 N.ar    1  UNL1       -0.2082
     17 C         142.2903  133.4868  155.0068 C.ar    1  UNL1        0.2296
     18 O         143.1850  132.4023  155.5295 O.2     1  UNL1       -0.4349
     19 C         142.4349  131.1055  155.4528 C.ar    1  UNL1        0.1607
     20 C         144.5558  129.9820  157.7352 C.3     1  UNL1        0.0048
     21 C         144.1715  129.4203  156.3986 C.3     1  UNL1        0.0254
     22 C         145.1454  128.5753  155.6319 C.3     1  UNL1        0.0048
     23 C         139.4952  127.7488  154.8694 C.1     1  UNL1        0.1005
     24 N         138.5153  126.6299  154.6749 N.1     1  UNL1       -0.1908
     25 C         142.9510  141.7749  154.2177 C.3     1  UNL1        0.1355
     26 C         142.6409  142.7035  155.3541 C.3     1  UNL1        0.2101
     27 C         142.2093  142.2972  156.7320 C.3     1  UNL1        0.1483
     28 N         142.0096  143.5440  157.5417 N.am    1  UNL1       -0.2059
     29 C         142.3178  144.7209  156.6642 C.2     1  UNL1        0.4098
     30 O         142.2481  146.1639  157.0679 O.2     1  UNL1       -0.2258
     31 O         142.7079  144.2013  155.3122 O.3     1  UNL1       -0.4345
     32 C         141.5776  143.6035  158.9769 C.ar    1  UNL1        0.1400
     33 C         140.6019  142.5960  159.5089 C.ar    1  UNL1        0.0348
     34 C         140.1699  142.6555  160.9441 C.ar    1  UNL1        0.0045
     35 C         140.7135  143.7225  161.8474 C.ar    1  UNL1        0.0222
     36 C         141.6892  144.7300  161.3153 C.ar    1  UNL1        0.1004
     37 N         142.1212  144.6705  159.8802 N.ar    1  UNL1       -0.2287
     38 C         140.2815  143.7820  163.2825 C.ar    1  UNL1        0.0358
     39 C         139.0205  144.5029  163.6569 C.ar    1  UNL1        0.0031
     40 C         138.5885  144.5624  165.0921 C.ar    1  UNL1        0.0002
     41 C         139.4174  143.9011  166.1529 C.ar    1  UNL1        0.0031
     42 C         140.6784  143.1802  165.7786 C.ar    1  UNL1        0.0372
     43 C         141.1105  143.1207  164.3433 C.ar    1  UNL1        0.1468
     44 O         142.3715  142.3998  163.9689 O.3     1  UNL1       -0.4045
     45 C         143.6770  142.8005  164.5896 C.3     1  UNL1        0.5753
     46 F         144.9825  143.2012  165.2102 F       1  UNL1       -0.1328
     47 F         143.9060  141.3830  165.0231 F       1  UNL1       -0.1328
     48 F         143.4480  144.2181  164.1560 F       1  UNL1       -0.1328
@<TRIPOS>BOND
     1    20    21    1
     2    21    22    1
     3    21    11    1
     4    11    12   ar
     5    12    13   ar
     6    13    23    1
     7    23    24    3
     8    13    14   ar
     9    14    15   ar
    10    15    16   ar
    11    16    17   ar
    12    17     5    1
    13     5     6   ar
    14     6     7   ar
    15     7     8   ar
    16     8     1    1
    17     1     2    2
    18     1     3   am
    19     3    25    1
    20    25    26    1
    21    26    27    1
    22    27    28    1
    23    28    32    1
    24    32    33   ar
    25    33    34   ar
    26    34    35   ar
    27    35    38    1
    28    38    39   ar
    29    39    40   ar
    30    40    41   ar
    31    41    42   ar
    32    42    43   ar
    33    43    44    1
    34    44    45    1
    35    45    46    1
    36    45    47    1
    37    45    48    1
    38    35    36   ar
    39    36    37   ar
    40    28    29   am
    41    29    30    2
    42    29    31    1
    43     8     9   ar
    44     9    10   ar
    45    17    18   ar
    46    18    19   ar
    47    19    11   ar
    48    19    15   ar
    49    10     5   ar
    50    31    26    1
    51    37    32   ar
    52    43    38   ar
    53     3     4    1
