@<TRIPOS>MOLECULE
*****
 40 43 0 0 0
SMALL
GASTEIGER

@<TRIPOS>ATOM
      1 N         139.5413  140.0853  160.3976 N.3     1  UNL1       -0.2711
      2 C         138.0912  140.3707  160.1411 C.3     1  UNL1        0.0933
      3 C         138.3257  140.2362  158.6657 C.3     1  UNL1        0.1035
      4 C         139.7758  139.9508  158.9222 C.3     1  UNL1        0.0933
      5 C         142.1197  139.7651  164.0718 C.3     1  UNL1        0.1085
      6 O         143.1441  138.8543  164.6808 O.3     1  UNL1       -0.3826
      7 C         141.1968  140.9355  163.9029 C.3     1  UNL1        0.0326
      8 C         140.3373  141.0422  162.6782 C.3     1  UNL1        0.0187
      9 C         140.4007  139.9786  161.6224 C.3     1  UNL1        0.0578
     10 C         141.3236  138.8083  161.7912 C.3     1  UNL1        0.0187
     11 C         142.1831  138.7016  163.0160 C.3     1  UNL1        0.0326
     12 H         143.4358  139.2186  165.5312 H       1  UNL1        0.2107
     13 C         142.9967  142.0069  167.8738 C.ar    1  UNL1        0.2248
     14 C         143.4262  142.5734  166.5530 C.ar    1  UNL1        0.0575
     15 C         143.1338  141.8262  165.2856 C.ar    1  UNL1        0.0043
     16 C         142.4120  140.5124  165.3391 C.ar    1  UNL1        0.0211
     17 C         141.9825  139.9459  166.6599 C.ar    1  UNL1        0.1000
     18 N         142.2748  140.6932  167.9272 N.ar    1  UNL1       -0.2104
     19 O         143.2890  142.7542  169.1411 O.3     1  UNL1       -0.4602
     20 C         140.8588  143.4768  169.7085 C.3     1  UNL1        0.0512
     21 C         142.2012  142.9739  170.1502 C.3     1  UNL1        0.2072
     22 N         137.4662  140.3429  157.4410 N.am    1  UNL1       -0.3018
     23 C         137.2281  141.6809  156.8061 C.2     1  UNL1        0.2426
     24 O         137.8494  142.9121  157.3959 O.2     1  UNL1       -0.2733
     25 H         137.0584  139.5347  157.0539 H       1  UNL1        0.1495
     26 C         136.3686  141.7875  155.5814 C.3     1  UNL1        0.1759
     27 N         134.8742  141.7692  155.7100 N.am    1  UNL1       -0.2931
     28 C         134.1522  140.4658  155.8827 C.2     1  UNL1        0.2462
     29 O         134.9247  139.1808  155.9269 O.2     1  UNL1       -0.2701
     30 H         134.3673  142.6127  155.6810 H       1  UNL1        0.1502
     31 C         132.6578  140.4475  156.0113 C.ar    1  UNL1        0.0533
     32 C         131.8368  141.5278  155.3721 C.ar    1  UNL1        0.0045
     33 C         130.3424  141.5095  155.5007 C.ar    1  UNL1        0.0001
     34 C         129.6692  140.4108  156.2686 C.ar    1  UNL1        0.0039
     35 C         130.4902  139.3305  156.9078 C.ar    1  UNL1        0.0716
     36 C         131.9846  139.3488  156.7792 C.ar    1  UNL1        0.0084
     37 C         129.8169  138.2318  157.6757 C.3     1  UNL1        0.4186
     38 F         129.1437  137.1332  158.4436 F       1  UNL1       -0.1659
     39 F         130.0542  137.2885  156.5339 F       1  UNL1       -0.1659
     40 F         129.5796  139.1752  158.8175 F       1  UNL1       -0.1659
@<TRIPOS>BOND
     1    20    21    1
     2    21    19    1
     3    19    13    1
     4    13    14   ar
     5    14    15   ar
     6    15    16   ar
     7    16     5    1
     8     5     6    1
     9     5     7    1
    10     7     8    1
    11     8     9    1
    12     9     1    1
    13     1     2    1
    14     2     3    1
    15     3    22    1
    16    22    23   am
    17    23    24    2
    18    23    26    1
    19    26    27    1
    20    27    28   am
    21    28    29    2
    22    28    31    1
    23    31    32   ar
    24    32    33   ar
    25    33    34   ar
    26    34    35   ar
    27    35    37    1
    28    37    38    1
    29    37    39    1
    30    37    40    1
    31    35    36   ar
    32     3     4    1
    33     9    10    1
    34    10    11    1
    35    16    17   ar
    36    17    18   ar
    37    18    13   ar
    38    11     5    1
    39     4     1    1
    40    36    31   ar
    41     6    12    1
    42    22    25    1
    43    27    30    1
@<TRIPOS>MOLECULE
*****
 40 43 0 0 0
SMALL
GASTEIGER

@<TRIPOS>ATOM
      1 N         144.3885  142.5662  159.0083 N.3     1  UNL1       -0.2711
      2 C         143.0809  143.2456  159.2886 C.3     1  UNL1        0.0933
      3 C         143.2351  142.9400  160.7490 C.3     1  UNL1        0.1035
      4 C         144.5427  142.2606  160.4687 C.3     1  UNL1        0.0933
      5 C         146.8347  141.7733  155.3154 C.3     1  UNL1        0.1085
      6 O         146.7413  141.0385  154.0111 O.3     1  UNL1       -0.3826
      7 C         147.3946  142.6226  156.4178 C.3     1  UNL1        0.0326
      8 C         146.5791  142.8869  157.6488 C.3     1  UNL1        0.0187
      9 C         145.2040  142.3019  157.7774 C.3     1  UNL1        0.0578
     10 C         144.6441  141.4526  156.6750 C.3     1  UNL1        0.0187
     11 C         145.4596  141.1883  155.4440 C.3     1  UNL1        0.0326
     12 H         147.5625  141.1633  153.5101 H       1  UNL1        0.2107
     13 C         150.8630  142.7628  153.5707 C.ar    1  UNL1        0.2248
     14 C         150.7700  141.9748  154.8437 C.ar    1  UNL1        0.0575
     15 C         149.4273  141.6450  155.4252 C.ar    1  UNL1        0.0043
     16 C         148.1775  142.1031  154.7339 C.ar    1  UNL1        0.0211
     17 C         148.2704  142.8910  153.4609 C.ar    1  UNL1        0.1000
     18 N         149.6132  143.2209  152.8793 N.ar    1  UNL1       -0.2104
     19 O         152.2057  143.0926  152.9891 O.3     1  UNL1       -0.4602
     20 C         153.4078  144.5334  154.7861 C.3     1  UNL1        0.0512
     21 C         152.9032  144.3604  153.3841 C.3     1  UNL1        0.2072
     22 N         142.4196  143.2044  161.9799 N.am    1  UNL1       -0.3018
     23 C         142.8685  144.2386  162.9692 C.2     1  UNL1        0.2426
     24 O         144.1329  145.0086  162.7276 O.2     1  UNL1       -0.2733
     25 H         141.5897  142.6990  162.1384 H       1  UNL1        0.1495
     26 C         142.0530  144.5030  164.2001 C.3     1  UNL1        0.1759
     27 N         141.5193  143.3564  165.0066 N.am    1  UNL1       -0.2931
     28 C         140.2333  142.6943  164.6093 C.2     1  UNL1        0.2462
     29 O         139.4811  143.1788  163.4054 O.2     1  UNL1       -0.2701
     30 H         142.0131  143.0384  165.7968 H       1  UNL1        0.1502
     31 C         139.6997  141.5477  165.4159 C.ar    1  UNL1        0.0533
     32 C         138.7236  140.5886  164.8015 C.ar    1  UNL1        0.0045
     33 C         138.1900  139.4421  165.6081 C.ar    1  UNL1        0.0001
     34 C         138.6324  139.2546  167.0291 C.ar    1  UNL1        0.0039
     35 C         139.6084  140.2136  167.6434 C.ar    1  UNL1        0.0716
     36 C         140.1421  141.3602  166.8369 C.ar    1  UNL1        0.0084
     37 C         140.0509  140.0262  169.0644 C.3     1  UNL1        0.4186
     38 F         140.4933  139.8387  170.4853 F       1  UNL1       -0.1659
     39 F         138.6700  140.3688  169.5395 F       1  UNL1       -0.1659
     40 F         141.4318  139.6835  168.5893 F       1  UNL1       -0.1659
@<TRIPOS>BOND
     1    20    21    1
     2    21    19    1
     3    19    13    1
     4    13    14   ar
     5    14    15   ar
     6    15    16   ar
     7    16     5    1
     8     5     6    1
     9     5     7    1
    10     7     8    1
    11     8     9    1
    12     9     1    1
    13     1     2    1
    14     2     3    1
    15     3    22    1
    16    22    23   am
    17    23    24    2
    18    23    26    1
    19    26    27    1
    20    27    28   am
    21    28    29    2
    22    28    31    1
    23    31    32   ar
    24    32    33   ar
    25    33    34   ar
    26    34    35   ar
    27    35    37    1
    28    37    38    1
    29    37    39    1
    30    37    40    1
    31    35    36   ar
    32     3     4    1
    33     9    10    1
    34    10    11    1
    35    16    17   ar
    36    17    18   ar
    37    18    13   ar
    38    11     5    1
    39     4     1    1
    40    36    31   ar
    41     6    12    1
    42    22    25    1
    43    27    30    1
@<TRIPOS>MOLECULE
*****
 40 43 0 0 0
SMALL
GASTEIGER

@<TRIPOS>ATOM
      1 N         139.5606  140.0018  160.7543 N.3     1  UNL1       -0.2711
      2 C         139.6775  139.6686  159.2965 C.3     1  UNL1        0.0933
      3 C         138.3001  140.2141  159.0614 C.3     1  UNL1        0.1035
      4 C         138.1833  140.5473  160.5192 C.3     1  UNL1        0.0933
      5 C         142.2349  139.5510  164.3453 C.3     1  UNL1        0.1085
      6 O         143.3437  138.6757  164.8497 O.3     1  UNL1       -0.3826
      7 C         141.2154  140.6505  164.3027 C.3     1  UNL1        0.0326
      8 C         140.3239  140.8007  163.1057 C.3     1  UNL1        0.0187
      9 C         140.4520  139.8516  161.9513 C.3     1  UNL1        0.0578
     10 C         141.4715  138.7521  161.9939 C.3     1  UNL1        0.0187
     11 C         142.3630  138.6019  163.1909 C.3     1  UNL1        0.0326
     12 H         143.6225  138.9805  165.7273 H       1  UNL1        0.2107
     13 C         143.0058  141.4865  168.3340 C.ar    1  UNL1        0.2248
     14 C         142.5483  140.0595  168.2687 C.ar    1  UNL1        0.0575
     15 C         142.2913  139.4144  166.9391 C.ar    1  UNL1        0.0043
     16 C         142.4919  140.1962  165.6749 C.ar    1  UNL1        0.0211
     17 C         142.9494  141.6232  165.7401 C.ar    1  UNL1        0.1000
     18 N         143.2064  142.2684  167.0697 N.ar    1  UNL1       -0.2104
     19 O         143.2628  142.1317  169.6635 O.3     1  UNL1       -0.4602
     20 C         140.9087  143.2303  169.6332 C.3     1  UNL1        0.0512
     21 C         142.2885  143.1310  170.2131 C.3     1  UNL1        0.2072
     22 N         137.4088  140.3643  157.8643 N.am    1  UNL1       -0.3018
     23 C         137.3862  141.6568  157.1035 C.2     1  UNL1        0.2426
     24 O         138.2550  142.7991  157.5397 O.2     1  UNL1       -0.2733
     25 H         136.8386  139.6145  157.5780 H       1  UNL1        0.1495
     26 C         136.4949  141.8070  155.9064 C.3     1  UNL1        0.1759
     27 N         135.0127  141.6250  156.0475 N.am    1  UNL1       -0.2931
     28 C         134.4072  140.2605  155.9007 C.2     1  UNL1        0.2462
     29 O         135.2841  139.0780  155.6129 O.2     1  UNL1       -0.2701
     30 H         134.4372  142.4012  156.2364 H       1  UNL1        0.1502
     31 C         132.9250  140.0785  156.0418 C.ar    1  UNL1        0.0533
     32 C         132.3770  138.8068  156.6183 C.ar    1  UNL1        0.0045
     33 C         130.8948  138.6249  156.7594 C.ar    1  UNL1        0.0001
     34 C         129.9606  139.7147  156.3239 C.ar    1  UNL1        0.0039
     35 C         130.5086  140.9864  155.7474 C.ar    1  UNL1        0.0716
     36 C         131.9908  141.1683  155.6063 C.ar    1  UNL1        0.0084
     37 C         129.5744  142.0762  155.3119 C.3     1  UNL1        0.4186
     38 F         128.6402  143.1659  154.8765 F       1  UNL1       -0.1659
     39 F         128.4389  141.0963  155.2957 F       1  UNL1       -0.1659
     40 F         130.7099  143.0561  155.3281 F       1  UNL1       -0.1659
@<TRIPOS>BOND
     1    20    21    1
     2    21    19    1
     3    19    13    1
     4    13    14   ar
     5    14    15   ar
     6    15    16   ar
     7    16     5    1
     8     5     6    1
     9     5     7    1
    10     7     8    1
    11     8     9    1
    12     9     1    1
    13     1     2    1
    14     2     3    1
    15     3    22    1
    16    22    23   am
    17    23    24    2
    18    23    26    1
    19    26    27    1
    20    27    28   am
    21    28    29    2
    22    28    31    1
    23    31    32   ar
    24    32    33   ar
    25    33    34   ar
    26    34    35   ar
    27    35    37    1
    28    37    38    1
    29    37    39    1
    30    37    40    1
    31    35    36   ar
    32     3     4    1
    33     9    10    1
    34    10    11    1
    35    16    17   ar
    36    17    18   ar
    37    18    13   ar
    38    11     5    1
    39     4     1    1
    40    36    31   ar
    41     6    12    1
    42    22    25    1
    43    27    30    1
@<TRIPOS>MOLECULE
*****
 40 43 0 0 0
SMALL
GASTEIGER

@<TRIPOS>ATOM
      1 N         140.6619  139.6525  161.0269 N.3     1  UNL1       -0.2711
      2 C         140.0798  138.4608  160.3261 C.3     1  UNL1        0.0933
      3 C         141.0873  138.6158  159.2256 C.3     1  UNL1        0.1035
      4 C         141.6694  139.8075  159.9264 C.3     1  UNL1        0.0933
      5 C         139.7593  141.8515  164.8478 C.3     1  UNL1        0.1085
      6 O         139.1213  143.1253  165.3173 O.3     1  UNL1       -0.3826
      7 C         140.4586  140.5253  164.8930 C.3     1  UNL1        0.0326
      8 C         140.7595  139.7922  163.6193 C.3     1  UNL1        0.0187
      9 C         140.3611  140.3854  162.3005 C.3     1  UNL1        0.0578
     10 C         139.6617  141.7116  162.2553 C.3     1  UNL1        0.0187
     11 C         139.3608  142.4446  163.5290 C.3     1  UNL1        0.0326
     12 H         139.1620  143.1696  166.2854 H       1  UNL1        0.2107
     13 C         140.2901  141.3991  169.2934 C.ar    1  UNL1        0.2248
     14 C         139.7189  140.2702  168.4876 C.ar    1  UNL1        0.0575
     15 C         139.5420  140.4210  167.0057 C.ar    1  UNL1        0.0043
     16 C         139.9362  141.7007  166.3297 C.ar    1  UNL1        0.0211
     17 C         140.5074  142.8295  167.1355 C.ar    1  UNL1        0.1000
     18 N         140.6843  142.6787  168.6174 N.ar    1  UNL1       -0.2104
     19 O         140.4670  141.2483  170.7753 O.3     1  UNL1       -0.4602
     20 C         142.7884  140.1151  170.4982 C.3     1  UNL1        0.0512
     21 C         141.8084  140.8808  171.3369 C.3     1  UNL1        0.2072
     22 N         141.3881  137.8828  157.9519 N.am    1  UNL1       -0.3018
     23 C         140.3669  137.8364  156.8542 C.2     1  UNL1        0.2426
     24 O         139.0449  138.5229  157.0302 O.2     1  UNL1       -0.2733
     25 H         142.2558  137.4322  157.8365 H       1  UNL1        0.1495
     26 C         140.6677  137.1034  155.5805 C.3     1  UNL1        0.1759
     27 N         140.8137  135.6106  155.5909 N.am    1  UNL1       -0.2931
     28 C         142.1066  134.9865  156.0258 C.2     1  UNL1        0.2462
     29 O         143.2533  135.8553  156.4503 O.2     1  UNL1       -0.2701
     30 H         140.0611  135.0404  155.3123 H       1  UNL1        0.1502
     31 C         142.2526  133.4936  156.0362 C.ar    1  UNL1        0.0533
     32 C         141.3660  132.6473  155.1716 C.ar    1  UNL1        0.0045
     33 C         141.5120  131.1545  155.1820 C.ar    1  UNL1        0.0001
     34 C         142.5448  130.5080  156.0570 C.ar    1  UNL1        0.0039
     35 C         143.4314  131.3543  156.9216 C.ar    1  UNL1        0.0716
     36 C         143.2854  132.8472  156.9112 C.ar    1  UNL1        0.0084
     37 C         144.4642  130.7079  157.7966 C.3     1  UNL1        0.4186
     38 F         145.4968  130.0615  158.6715 F       1  UNL1       -0.1659
     39 F         145.4932  131.6796  157.2998 F       1  UNL1       -0.1659
     40 F         143.4350  129.7361  158.2933 F       1  UNL1       -0.1659
@<TRIPOS>BOND
     1    20    21    1
     2    21    19    1
     3    19    13    1
     4    13    14   ar
     5    14    15   ar
     6    15    16   ar
     7    16     5    1
     8     5     6    1
     9     5     7    1
    10     7     8    1
    11     8     9    1
    12     9     1    1
    13     1     2    1
    14     2     3    1
    15     3    22    1
    16    22    23   am
    17    23    24    2
    18    23    26    1
    19    26    27    1
    20    27    28   am
    21    28    29    2
    22    28    31    1
    23    31    32   ar
    24    32    33   ar
    25    33    34   ar
    26    34    35   ar
    27    35    37    1
    28    37    38    1
    29    37    39    1
    30    37    40    1
    31    35    36   ar
    32     3     4    1
    33     9    10    1
    34    10    11    1
    35    16    17   ar
    36    17    18   ar
    37    18    13   ar
    38    11     5    1
    39     4     1    1
    40    36    31   ar
    41     6    12    1
    42    22    25    1
    43    27    30    1
@<TRIPOS>MOLECULE
*****
 40 43 0 0 0
SMALL
GASTEIGER

@<TRIPOS>ATOM
      1 N         139.7510  139.1635  159.7743 N.3     1  UNL1       -0.2711
      2 C         139.2277  139.3075  158.3759 C.3     1  UNL1        0.0933
      3 C         140.4068  138.5401  157.8556 C.3     1  UNL1        0.1035
      4 C         140.9302  138.3961  159.2540 C.3     1  UNL1        0.0933
      5 C         138.3595  140.4863  163.8441 C.3     1  UNL1        0.1085
      6 O         137.2894  141.3266  164.4756 O.3     1  UNL1       -0.3826
      7 C         139.5543  139.5887  163.7152 C.3     1  UNL1        0.0326
      8 C         140.0182  139.1478  162.3585 C.3     1  UNL1        0.0187
      9 C         139.2872  139.6044  161.1309 C.3     1  UNL1        0.0578
     10 C         138.0924  140.5020  161.2598 C.3     1  UNL1        0.0187
     11 C         137.6285  140.9429  162.6165 C.3     1  UNL1        0.0326
     12 H         137.3963  141.3154  165.4396 H       1  UNL1        0.2107
     13 C         139.4376  139.9919  168.1850 C.ar    1  UNL1        0.2248
     14 C         140.0585  141.0939  167.3788 C.ar    1  UNL1        0.0575
     15 C         139.6991  141.2587  165.9318 C.ar    1  UNL1        0.0043
     16 C         138.7188  140.3215  165.2911 C.ar    1  UNL1        0.0211
     17 C         138.0979  139.2195  166.0973 C.ar    1  UNL1        0.1000
     18 N         138.4573  139.0547  167.5442 N.ar    1  UNL1       -0.2104
     19 O         139.7970  139.8271  169.6319 O.3     1  UNL1       -0.4602
     20 C         142.0493  140.7289  170.5614 C.3     1  UNL1        0.0512
     21 C         141.2248  139.5948  170.0283 C.3     1  UNL1        0.2072
     22 N         140.8706  138.0992  156.4989 N.am    1  UNL1       -0.3018
     23 C         139.9353  137.3566  155.5913 C.2     1  UNL1        0.2426
     24 O         138.5363  137.0548  156.0404 O.2     1  UNL1       -0.2733
     25 H         141.7888  138.2973  156.2041 H       1  UNL1        0.1495
     26 C         140.3991  136.9157  154.2346 C.3     1  UNL1        0.1759
     27 N         140.8598  135.5042  154.0216 N.am    1  UNL1       -0.2931
     28 C         142.1751  135.0518  154.5832 C.2     1  UNL1        0.2462
     29 O         143.0295  136.0109  155.3579 O.2     1  UNL1       -0.2701
     30 H         140.2990  134.8747  153.5131 H       1  UNL1        0.1502
     31 C         142.6359  133.6403  154.3702 C.ar    1  UNL1        0.0533
     32 C         142.4091  132.9687  153.0483 C.ar    1  UNL1        0.0045
     33 C         142.8698  131.5573  152.8353 C.ar    1  UNL1        0.0001
     34 C         143.5574  130.8173  153.9443 C.ar    1  UNL1        0.0039
     35 C         143.7842  131.4889  155.2662 C.ar    1  UNL1        0.0716
     36 C         143.3235  132.9004  155.4792 C.ar    1  UNL1        0.0084
     37 C         144.4718  130.7490  156.3752 C.3     1  UNL1        0.4186
     38 F         145.1593  130.0091  157.4840 F       1  UNL1       -0.1659
     39 F         143.7142  131.5588  157.3851 F       1  UNL1       -0.1659
     40 F         145.2295  129.9391  155.3651 F       1  UNL1       -0.1659
@<TRIPOS>BOND
     1    20    21    1
     2    21    19    1
     3    19    13    1
     4    13    14   ar
     5    14    15   ar
     6    15    16   ar
     7    16     5    1
     8     5     6    1
     9     5     7    1
    10     7     8    1
    11     8     9    1
    12     9     1    1
    13     1     2    1
    14     2     3    1
    15     3    22    1
    16    22    23   am
    17    23    24    2
    18    23    26    1
    19    26    27    1
    20    27    28   am
    21    28    29    2
    22    28    31    1
    23    31    32   ar
    24    32    33   ar
    25    33    34   ar
    26    34    35   ar
    27    35    37    1
    28    37    38    1
    29    37    39    1
    30    37    40    1
    31    35    36   ar
    32     3     4    1
    33     9    10    1
    34    10    11    1
    35    16    17   ar
    36    17    18   ar
    37    18    13   ar
    38    11     5    1
    39     4     1    1
    40    36    31   ar
    41     6    12    1
    42    22    25    1
    43    27    30    1
@<TRIPOS>MOLECULE
*****
 40 43 0 0 0
SMALL
GASTEIGER

@<TRIPOS>ATOM
      1 N         143.1298  139.0647  160.9265 N.3     1  UNL1       -0.2711
      2 C         142.8795  137.6478  160.5026 C.3     1  UNL1        0.0933
      3 C         142.9389  138.0677  159.0638 C.3     1  UNL1        0.1035
      4 C         143.1892  139.4846  159.4877 C.3     1  UNL1        0.0933
      5 C         143.5349  141.1795  164.8778 C.3     1  UNL1        0.1085
      6 O         144.1511  142.4164  165.4613 O.3     1  UNL1       -0.3826
      7 C         142.7765  139.8882  164.7926 C.3     1  UNL1        0.0326
      8 C         142.6414  139.1832  163.4755 C.3     1  UNL1        0.0187
      9 C         143.2648  139.7696  162.2436 C.3     1  UNL1        0.0578
     10 C         144.0232  141.0609  162.3288 C.3     1  UNL1        0.0187
     11 C         144.1582  141.7659  163.6460 C.3     1  UNL1        0.0326
     12 H         143.9643  142.4529  166.4124 H       1  UNL1        0.2107
     13 C         142.3068  140.7091  169.1814 C.ar    1  UNL1        0.2248
     14 C         142.5504  139.4956  168.3340 C.ar    1  UNL1        0.0575
     15 C         142.9598  139.6524  166.8995 C.ar    1  UNL1        0.0043
     16 C         143.1255  141.0227  166.3123 C.ar    1  UNL1        0.0211
     17 C         142.8819  142.2362  167.1597 C.ar    1  UNL1        0.1000
     18 N         142.4726  142.0794  168.5942 N.ar    1  UNL1       -0.2104
     19 O         141.8975  140.5523  170.6159 O.3     1  UNL1       -0.4602
     20 C         139.3716  140.6327  170.0132 C.3     1  UNL1        0.0512
     21 C         140.4727  140.7905  171.0196 C.3     1  UNL1        0.2072
     22 N         142.8039  137.3627  157.7467 N.am    1  UNL1       -0.3018
     23 C         141.4676  137.2885  157.0692 C.2     1  UNL1        0.2426
     24 O         140.2664  137.9192  157.7089 O.2     1  UNL1       -0.2733
     25 H         143.5923  136.9487  157.3268 H       1  UNL1        0.1495
     26 C         141.3326  136.5835  155.7521 C.3     1  UNL1        0.1759
     27 N         141.2623  135.0859  155.7068 N.am    1  UNL1       -0.2931
     28 C         142.4875  134.2686  155.9915 C.2     1  UNL1        0.2462
     29 O         143.7829  134.9491  156.3216 O.2     1  UNL1       -0.2701
     30 H         140.4121  134.6393  155.4902 H       1  UNL1        0.1502
     31 C         142.4172  132.7709  155.9462 C.ar    1  UNL1        0.0533
     32 C         141.5861  132.0905  154.8994 C.ar    1  UNL1        0.0045
     33 C         141.5158  130.5928  154.8541 C.ar    1  UNL1        0.0001
     34 C         142.2767  129.7756  155.8557 C.ar    1  UNL1        0.0039
     35 C         143.1079  130.4561  156.9026 C.ar    1  UNL1        0.0716
     36 C         143.1781  131.9538  156.9479 C.ar    1  UNL1        0.0084
     37 C         143.8688  129.6389  157.9043 C.3     1  UNL1        0.4186
     38 F         144.6296  128.8219  158.9058 F       1  UNL1       -0.1659
     39 F         144.7717  130.8066  158.1709 F       1  UNL1       -0.1659
     40 F         142.9658  128.4712  157.6376 F       1  UNL1       -0.1659
@<TRIPOS>BOND
     1    20    21    1
     2    21    19    1
     3    19    13    1
     4    13    14   ar
     5    14    15   ar
     6    15    16   ar
     7    16     5    1
     8     5     6    1
     9     5     7    1
    10     7     8    1
    11     8     9    1
    12     9     1    1
    13     1     2    1
    14     2     3    1
    15     3    22    1
    16    22    23   am
    17    23    24    2
    18    23    26    1
    19    26    27    1
    20    27    28   am
    21    28    29    2
    22    28    31    1
    23    31    32   ar
    24    32    33   ar
    25    33    34   ar
    26    34    35   ar
    27    35    37    1
    28    37    38    1
    29    37    39    1
    30    37    40    1
    31    35    36   ar
    32     3     4    1
    33     9    10    1
    34    10    11    1
    35    16    17   ar
    36    17    18   ar
    37    18    13   ar
    38    11     5    1
    39     4     1    1
    40    36    31   ar
    41     6    12    1
    42    22    25    1
    43    27    30    1
@<TRIPOS>MOLECULE
*****
 40 43 0 0 0
SMALL
GASTEIGER

@<TRIPOS>ATOM
      1 N         143.6748  140.7927  160.8813 N.3     1  UNL1       -0.2711
      2 C         143.5687  139.4199  160.2861 C.3     1  UNL1        0.0933
      3 C         143.6948  140.0063  158.9113 C.3     1  UNL1        0.1035
      4 C         143.8008  141.3791  159.5065 C.3     1  UNL1        0.0933
      5 C         143.6327  142.4606  165.0606 C.3     1  UNL1        0.1085
      6 O         144.4913  143.2765  165.9809 O.3     1  UNL1       -0.3826
      7 C         142.4682  141.6572  164.5620 C.3     1  UNL1        0.0326
      8 C         142.4823  141.1012  163.1688 C.3     1  UNL1        0.0187
      9 C         143.6607  141.3486  162.2744 C.3     1  UNL1        0.0578
     10 C         144.8251  142.1520  162.7730 C.3     1  UNL1        0.0187
     11 C         144.8111  142.7080  164.1662 C.3     1  UNL1        0.0326
     12 H         144.0392  143.3869  166.8319 H       1  UNL1        0.2107
     13 C         140.9920  142.5683  168.7027 C.ar    1  UNL1        0.2248
     14 C         142.4611  142.3032  168.8490 C.ar    1  UNL1        0.0575
     15 C         143.3413  142.2673  167.6350 C.ar    1  UNL1        0.0043
     16 C         142.7524  142.4965  166.2746 C.ar    1  UNL1        0.0211
     17 C         141.2834  142.7617  166.1283 C.ar    1  UNL1        0.1000
     18 N         140.4031  142.7976  167.3424 N.ar    1  UNL1       -0.2104
     19 O         140.1118  142.6043  169.9168 O.3     1  UNL1       -0.4602
     20 C         139.9847  140.0665  170.4585 C.3     1  UNL1        0.0512
     21 C         139.3087  141.3957  170.2970 C.3     1  UNL1        0.2072
     22 N         143.7089  139.4503  157.5182 N.am    1  UNL1       -0.3018
     23 C         142.4635  139.4882  156.6829 C.2     1  UNL1        0.2426
     24 O         141.2042  140.0821  157.2406 O.2     1  UNL1       -0.2733
     25 H         144.5355  139.0604  157.1521 H       1  UNL1        0.1495
     26 C         142.4776  138.9322  155.2898 C.3     1  UNL1        0.1759
     27 N         142.3056  137.4586  155.0686 N.am    1  UNL1       -0.2931
     28 C         143.4738  136.5332  155.2392 C.2     1  UNL1        0.2462
     29 O         144.8139  137.0815  155.6309 O.2     1  UNL1       -0.2701
     30 H         141.4260  137.0988  154.8116 H       1  UNL1        0.1502
     31 C         143.3017  135.0596  155.0181 C.ar    1  UNL1        0.0533
     32 C         142.4627  134.5653  153.8772 C.ar    1  UNL1        0.0045
     33 C         142.2906  133.0917  153.6561 C.ar    1  UNL1        0.0001
     34 C         142.9577  132.1124  154.5759 C.ar    1  UNL1        0.0039
     35 C         143.7967  132.6067  155.7168 C.ar    1  UNL1        0.0716
     36 C         143.9688  134.0803  155.9379 C.ar    1  UNL1        0.0084
     37 C         144.4638  131.6273  156.6366 C.3     1  UNL1        0.4186
     38 F         145.1308  130.6481  157.5564 F       1  UNL1       -0.1659
     39 F         145.1059  130.9578  155.4579 F       1  UNL1       -0.1659
     40 F         143.8216  132.2970  157.8153 F       1  UNL1       -0.1659
@<TRIPOS>BOND
     1    20    21    1
     2    21    19    1
     3    19    13    1
     4    13    14   ar
     5    14    15   ar
     6    15    16   ar
     7    16     5    1
     8     5     6    1
     9     5     7    1
    10     7     8    1
    11     8     9    1
    12     9     1    1
    13     1     2    1
    14     2     3    1
    15     3    22    1
    16    22    23   am
    17    23    24    2
    18    23    26    1
    19    26    27    1
    20    27    28   am
    21    28    29    2
    22    28    31    1
    23    31    32   ar
    24    32    33   ar
    25    33    34   ar
    26    34    35   ar
    27    35    37    1
    28    37    38    1
    29    37    39    1
    30    37    40    1
    31    35    36   ar
    32     3     4    1
    33     9    10    1
    34    10    11    1
    35    16    17   ar
    36    17    18   ar
    37    18    13   ar
    38    11     5    1
    39     4     1    1
    40    36    31   ar
    41     6    12    1
    42    22    25    1
    43    27    30    1
@<TRIPOS>MOLECULE
*****
 40 43 0 0 0
SMALL
GASTEIGER

@<TRIPOS>ATOM
      1 N         142.9688  139.3132  160.7514 N.3     1  UNL1       -0.2711
      2 C         143.2434  139.5687  159.2990 C.3     1  UNL1        0.0933
      3 C         142.7879  138.1784  158.9683 C.3     1  UNL1        0.1035
      4 C         142.5132  137.9228  160.4206 C.3     1  UNL1        0.0933
      5 C         143.3528  141.7209  164.5336 C.3     1  UNL1        0.1085
      6 O         144.3427  142.5970  165.2425 O.3     1  UNL1       -0.3826
      7 C         142.0873  140.9675  164.2494 C.3     1  UNL1        0.0326
      8 C         141.9593  140.1649  162.9886 C.3     1  UNL1        0.0187
      9 C         143.0967  140.1157  162.0121 C.3     1  UNL1        0.0578
     10 C         144.3623  140.8691  162.2963 C.3     1  UNL1        0.0187
     11 C         144.4903  141.6717  163.5571 C.3     1  UNL1        0.0326
     12 H         143.9583  142.9105  166.0760 H       1  UNL1        0.2107
     13 C         140.9717  142.7812  168.2018 C.ar    1  UNL1        0.2248
     14 C         140.3367  142.8647  166.8454 C.ar    1  UNL1        0.0575
     15 C         141.1304  142.5112  165.6227 C.ar    1  UNL1        0.0043
     16 C         142.5591  142.0743  165.7563 C.ar    1  UNL1        0.0211
     17 C         143.1941  141.9909  167.1127 C.ar    1  UNL1        0.1000
     18 N         142.4003  142.3443  168.3354 N.ar    1  UNL1       -0.2104
     19 O         140.1779  143.1347  169.4245 O.3     1  UNL1       -0.4602
     20 C         139.1996  140.7666  169.8546 C.3     1  UNL1        0.0512
     21 C         139.7519  142.0588  170.3790 C.3     1  UNL1        0.2072
     22 N         142.6599  137.3759  157.7074 N.am    1  UNL1       -0.3018
     23 C         141.3304  137.2624  157.0223 C.2     1  UNL1        0.2426
     24 O         140.1288  137.9514  157.5980 O.2     1  UNL1       -0.2733
     25 H         143.4486  136.9237  157.3296 H       1  UNL1        0.1495
     26 C         141.2024  136.4599  155.7614 C.3     1  UNL1        0.1759
     27 N         141.4347  134.9782  155.7887 N.am    1  UNL1       -0.2931
     28 C         142.8320  134.4368  155.7228 C.2     1  UNL1        0.2462
     29 O         143.9970  135.3771  155.6296 O.2     1  UNL1       -0.2701
     30 H         140.6700  134.3612  155.8498 H       1  UNL1        0.1502
     31 C         143.0643  132.9551  155.7500 C.ar    1  UNL1        0.0533
     32 C         144.4374  132.4161  156.0214 C.ar    1  UNL1        0.0045
     33 C         144.6697  130.9344  156.0486 C.ar    1  UNL1        0.0001
     34 C         143.5286  129.9918  155.8045 C.ar    1  UNL1        0.0039
     35 C         142.1554  130.5309  155.5331 C.ar    1  UNL1        0.0716
     36 C         141.9232  132.0125  155.5059 C.ar    1  UNL1        0.0084
     37 C         141.0144  129.5883  155.2889 C.3     1  UNL1        0.4186
     38 F         139.8735  128.6457  155.0448 F       1  UNL1       -0.1659
     39 F         140.2668  130.6774  154.5784 F       1  UNL1       -0.1659
     40 F         141.7621  128.4991  155.9995 F       1  UNL1       -0.1659
@<TRIPOS>BOND
     1    20    21    1
     2    21    19    1
     3    19    13    1
     4    13    14   ar
     5    14    15   ar
     6    15    16   ar
     7    16     5    1
     8     5     6    1
     9     5     7    1
    10     7     8    1
    11     8     9    1
    12     9     1    1
    13     1     2    1
    14     2     3    1
    15     3    22    1
    16    22    23   am
    17    23    24    2
    18    23    26    1
    19    26    27    1
    20    27    28   am
    21    28    29    2
    22    28    31    1
    23    31    32   ar
    24    32    33   ar
    25    33    34   ar
    26    34    35   ar
    27    35    37    1
    28    37    38    1
    29    37    39    1
    30    37    40    1
    31    35    36   ar
    32     3     4    1
    33     9    10    1
    34    10    11    1
    35    16    17   ar
    36    17    18   ar
    37    18    13   ar
    38    11     5    1
    39     4     1    1
    40    36    31   ar
    41     6    12    1
    42    22    25    1
    43    27    30    1
@<TRIPOS>MOLECULE
*****
 40 43 0 0 0
SMALL
GASTEIGER

@<TRIPOS>ATOM
      1 N         140.6961  138.9112  160.5545 N.3     1  UNL1       -0.2711
      2 C         141.9939  138.3071  160.1062 C.3     1  UNL1        0.0933
      3 C         141.4800  138.2482  158.6982 C.3     1  UNL1        0.1035
      4 C         140.1823  138.8522  159.1465 C.3     1  UNL1        0.0933
      5 C         139.0334  140.3175  164.4925 C.3     1  UNL1        0.1085
      6 O         137.7129  140.5676  165.1587 O.3     1  UNL1       -0.3826
      7 C         140.5175  140.2299  164.2934 C.3     1  UNL1        0.0326
      8 C         141.0718  139.7611  162.9807 C.3     1  UNL1        0.0187
      9 C         140.1419  139.3799  161.8672 C.3     1  UNL1        0.0578
     10 C         138.6578  139.4675  162.0662 C.3     1  UNL1        0.0187
     11 C         138.1035  139.9363  163.3789 C.3     1  UNL1        0.0326
     12 H         137.8620  140.8844  166.0633 H       1  UNL1        0.2107
     13 C         140.4472  141.7216  168.5272 C.ar    1  UNL1        0.2248
     14 C         139.9577  140.3147  168.3519 C.ar    1  UNL1        0.0575
     15 C         139.4864  139.8466  167.0070 C.ar    1  UNL1        0.0043
     16 C         139.5046  140.7855  165.8374 C.ar    1  UNL1        0.0211
     17 C         139.9941  142.1925  166.0127 C.ar    1  UNL1        0.1000
     18 N         140.4654  142.6605  167.3576 N.ar    1  UNL1       -0.2104
     19 O         140.9185  142.1897  169.8722 O.3     1  UNL1       -0.4602
     20 C         143.4928  142.2714  169.5319 C.3     1  UNL1        0.0512
     21 C         142.2228  142.9196  169.9975 C.3     1  UNL1        0.2072
     22 N         142.0343  137.7794  157.3855 N.am    1  UNL1       -0.3018
     23 C         143.2503  138.4395  156.8062 C.2     1  UNL1        0.2426
     24 O         143.9120  139.5684  157.5395 O.2     1  UNL1       -0.2733
     25 H         141.6000  137.0385  156.9042 H       1  UNL1        0.1495
     26 C         143.8046  137.9707  155.4935 C.3     1  UNL1        0.1759
     27 N         143.9324  136.5024  155.2149 N.am    1  UNL1       -0.2931
     28 C         142.7212  135.7026  154.8362 C.2     1  UNL1        0.2462
     29 O         141.3822  136.3713  154.7362 O.2     1  UNL1       -0.2701
     30 H         144.8113  136.0636  155.2806 H       1  UNL1        0.1502
     31 C         142.8491  134.2343  154.5576 C.ar    1  UNL1        0.0533
     32 C         142.2936  133.6607  153.2878 C.ar    1  UNL1        0.0045
     33 C         142.4215  132.1924  153.0092 C.ar    1  UNL1        0.0001
     34 C         143.1048  131.2976  154.0004 C.ar    1  UNL1        0.0039
     35 C         143.6602  131.8712  155.2702 C.ar    1  UNL1        0.0716
     36 C         143.5324  133.3395  155.5488 C.ar    1  UNL1        0.0084
     37 C         144.3435  130.9764  156.2615 C.3     1  UNL1        0.4186
     38 F         145.0268  130.0818  157.2526 F       1  UNL1       -0.1659
     39 F         143.6437  131.6848  157.3832 F       1  UNL1       -0.1659
     40 F         145.0434  130.2680  155.1396 F       1  UNL1       -0.1659
@<TRIPOS>BOND
     1    20    21    1
     2    21    19    1
     3    19    13    1
     4    13    14   ar
     5    14    15   ar
     6    15    16   ar
     7    16     5    1
     8     5     6    1
     9     5     7    1
    10     7     8    1
    11     8     9    1
    12     9     1    1
    13     1     2    1
    14     2     3    1
    15     3    22    1
    16    22    23   am
    17    23    24    2
    18    23    26    1
    19    26    27    1
    20    27    28   am
    21    28    29    2
    22    28    31    1
    23    31    32   ar
    24    32    33   ar
    25    33    34   ar
    26    34    35   ar
    27    35    37    1
    28    37    38    1
    29    37    39    1
    30    37    40    1
    31    35    36   ar
    32     3     4    1
    33     9    10    1
    34    10    11    1
    35    16    17   ar
    36    17    18   ar
    37    18    13   ar
    38    11     5    1
    39     4     1    1
    40    36    31   ar
    41     6    12    1
    42    22    25    1
    43    27    30    1
