@<TRIPOS>MOLECULE
*****
 32 36 0 0 0
SMALL
GASTEIGER

@<TRIPOS>ATOM
      1 N         141.6396  142.1354  165.0912 N.ar    1  UNL1       -0.2753
      2 C         140.8438  141.1305  164.3122 C.ar    1  UNL1        0.1497
      3 N         141.0347  141.4189  162.8526 N.ar    1  UNL1       -0.2220
      4 C         141.9485  142.6022  162.7297 C.ar    1  UNL1        0.1485
      5 C         142.4884  143.3336  161.5365 C.ar    1  UNL1        0.1510
      6 N         143.4022  144.5077  161.7269 N.ar    1  UNL1       -0.2076
      7 C         143.7760  144.9505  163.1104 C.ar    1  UNL1        0.2015
      8 N         143.2360  144.2191  164.3036 N.ar    1  UNL1       -0.2045
      9 C         142.3223  143.0449  164.1132 C.ar    1  UNL1        0.1711
     10 C         140.0045  140.0302  164.8912 C.ar    1  UNL1        0.0451
     11 C         138.7552  140.3613  165.6524 C.ar    1  UNL1        0.0047
     12 C         137.9159  139.2611  166.2313 C.ar    1  UNL1        0.0115
     13 C         138.3260  137.8298  166.0490 C.ar    1  UNL1        0.0585
     14 CL        137.4867  136.7296  166.6279 Cl      1  UNL1       -0.0822
     15 C         139.5753  137.4988  165.2878 C.ar    1  UNL1        0.0229
     16 C         140.4146  138.5990  164.7089 C.ar    1  UNL1        0.0614
     17 CL        141.6640  138.2679  163.9476 Cl      1  UNL1       -0.0821
     18 CL        142.0243  142.4601  171.0701 Cl      1  UNL1       -0.0822
     19 C         141.9281  142.3789  169.5754 C.ar    1  UNL1        0.0578
     20 C         143.0646  141.8074  168.7806 C.ar    1  UNL1        0.0129
     21 C         142.9684  141.7262  167.2859 C.ar    1  UNL1        0.0185
     22 C         141.7358  142.2166  166.5859 C.ar    1  UNL1        0.0668
     23 C         140.5993  142.7881  167.3807 C.ar    1  UNL1        0.0185
     24 C         140.6955  142.8693  168.8754 C.ar    1  UNL1        0.0129
     25 N         142.1145  142.8907  160.1530 N.pl3   1  UNL1       -0.3184
     26 H         142.0948  141.9316  159.9316 H       1  UNL1        0.1482
     27 C         141.7707  143.9092  159.1068 C.3     1  UNL1        0.0704
     28 C         142.6384  144.0593  157.8925 C.3     1  UNL1        0.0195
     29 C         142.2946  145.0778  156.8463 C.3     1  UNL1        0.0017
     30 C         141.0831  145.9461  157.0144 C.3     1  UNL1        0.0001
     31 C         140.2154  145.7960  158.2287 C.3     1  UNL1        0.0017
     32 C         140.5592  144.7775  159.2749 C.3     1  UNL1        0.0195
@<TRIPOS>BOND
     1    18    19    1
     2    19    20   ar
     3    20    21   ar
     4    21    22   ar
     5    22     1    1
     6     1     2   ar
     7     2    10    1
     8    10    11   ar
     9    11    12   ar
    10    12    13   ar
    11    13    14    1
    12    13    15   ar
    13    15    16   ar
    14    16    17    1
    15     2     3   ar
    16     3     4   ar
    17     4     5   ar
    18     5    25    1
    19    25    27    1
    20    27    28    1
    21    28    29    1
    22    29    30    1
    23    30    31    1
    24    31    32    1
    25     5     6   ar
    26     6     7   ar
    27     7     8   ar
    28     8     9   ar
    29    22    23   ar
    30    23    24   ar
    31    24    19   ar
    32     9     1   ar
    33    16    10   ar
    34     9     4   ar
    35    32    27    1
    36    25    26    1
@<TRIPOS>MOLECULE
*****
 32 36 0 0 0
SMALL
GASTEIGER

@<TRIPOS>ATOM
      1 N         139.0031  141.7476  159.8308 N.ar    1  UNL1       -0.2753
      2 C         138.3639  140.4438  160.2072 C.ar    1  UNL1        0.1497
      3 N         137.4961  140.0062  159.0647 N.ar    1  UNL1       -0.2220
      4 C         137.5990  141.0395  157.9822 C.ar    1  UNL1        0.1485
      5 C         136.9649  141.1394  156.6265 C.ar    1  UNL1        0.1510
      6 N         137.2622  142.3155  155.7443 N.ar    1  UNL1       -0.2076
      7 C         138.1935  143.3917  156.2178 C.ar    1  UNL1        0.2015
      8 N         138.8276  143.2918  157.5735 N.ar    1  UNL1       -0.2045
      9 C         138.5304  142.1157  158.4557 C.ar    1  UNL1        0.1711
     10 C         138.5584  139.7071  161.4994 C.ar    1  UNL1        0.0451
     11 C         139.3111  138.4098  161.5170 C.ar    1  UNL1        0.0047
     12 C         139.5056  137.6731  162.8091 C.ar    1  UNL1        0.0115
     13 C         138.9473  138.2338  164.0835 C.ar    1  UNL1        0.0585
     14 CL        139.1418  137.4971  165.3756 Cl      1  UNL1       -0.0822
     15 C         138.1946  139.5311  164.0658 C.ar    1  UNL1        0.0229
     16 C         138.0002  140.2678  162.7737 C.ar    1  UNL1        0.0614
     17 CL        137.2475  141.5652  162.7560 Cl      1  UNL1       -0.0821
     18 CL        142.7866  144.9314  163.2292 Cl      1  UNL1       -0.0822
     19 C         141.8407  144.1355  162.3796 C.ar    1  UNL1        0.0578
     20 C         142.2054  142.7446  161.9525 C.ar    1  UNL1        0.0129
     21 C         141.2595  141.9486  161.1030 C.ar    1  UNL1        0.0185
     22 C         139.9490  142.5435  160.6804 C.ar    1  UNL1        0.0668
     23 C         139.5844  143.9345  161.1075 C.ar    1  UNL1        0.0185
     24 C         140.5302  144.7304  161.9571 C.ar    1  UNL1        0.0129
     25 N         136.0335  140.0631  156.1530 N.pl3   1  UNL1       -0.3184
     26 H         136.3958  139.2139  155.8111 H       1  UNL1        0.1482
     27 C         134.5501  140.2806  156.2006 C.3     1  UNL1        0.0704
     28 C         133.8934  141.1912  155.2060 C.3     1  UNL1        0.0195
     29 C         132.4100  141.4087  155.2535 C.3     1  UNL1        0.0017
     30 C         131.5834  140.7156  156.2957 C.3     1  UNL1        0.0001
     31 C         132.2401  139.8048  157.2904 C.3     1  UNL1        0.0017
     32 C         133.7235  139.5873  157.2428 C.3     1  UNL1        0.0195
@<TRIPOS>BOND
     1    18    19    1
     2    19    20   ar
     3    20    21   ar
     4    21    22   ar
     5    22     1    1
     6     1     2   ar
     7     2    10    1
     8    10    11   ar
     9    11    12   ar
    10    12    13   ar
    11    13    14    1
    12    13    15   ar
    13    15    16   ar
    14    16    17    1
    15     2     3   ar
    16     3     4   ar
    17     4     5   ar
    18     5    25    1
    19    25    27    1
    20    27    28    1
    21    28    29    1
    22    29    30    1
    23    30    31    1
    24    31    32    1
    25     5     6   ar
    26     6     7   ar
    27     7     8   ar
    28     8     9   ar
    29    22    23   ar
    30    23    24   ar
    31    24    19   ar
    32     9     1   ar
    33    16    10   ar
    34     9     4   ar
    35    32    27    1
    36    25    26    1
@<TRIPOS>MOLECULE
*****
 32 36 0 0 0
SMALL
GASTEIGER

@<TRIPOS>ATOM
      1 N         142.7908  139.5769  160.3958 N.ar    1  UNL1       -0.2753
      2 C         141.6873  138.5681  160.5167 C.ar    1  UNL1        0.1497
      3 N         141.5061  137.9167  159.1778 N.ar    1  UNL1       -0.2220
      4 C         142.4976  138.5229  158.2294 C.ar    1  UNL1        0.1485
      5 C         142.7800  138.2731  156.7775 C.ar    1  UNL1        0.1510
      6 N         143.8564  139.0494  156.0785 N.ar    1  UNL1       -0.2076
      7 C         144.6504  140.0754  156.8312 C.ar    1  UNL1        0.2015
      8 N         144.3680  140.3252  158.2831 N.ar    1  UNL1       -0.2045
      9 C         143.2916  139.5490  158.9821 C.ar    1  UNL1        0.1711
     10 C         140.9028  138.2642  161.7586 C.ar    1  UNL1        0.0451
     11 C         141.5691  137.5881  162.9200 C.ar    1  UNL1        0.0047
     12 C         140.7846  137.2842  164.1618 C.ar    1  UNL1        0.0115
     13 C         139.3337  137.6564  164.2422 C.ar    1  UNL1        0.0585
     14 CL        138.5492  137.3524  165.4841 Cl      1  UNL1       -0.0822
     15 C         138.6674  138.3324  163.0808 C.ar    1  UNL1        0.0229
     16 C         139.4519  138.6363  161.8390 C.ar    1  UNL1        0.0614
     17 CL        138.7856  139.3124  160.6775 Cl      1  UNL1       -0.0821
     18 CL        144.8418  143.1048  164.7945 Cl      1  UNL1       -0.0822
     19 C         144.3290  142.2228  163.6948 C.ar    1  UNL1        0.0578
     20 C         144.9776  140.8957  163.4337 C.ar    1  UNL1        0.0129
     21 C         144.4649  140.0138  162.3340 C.ar    1  UNL1        0.0185
     22 C         143.3036  140.4589  161.4955 C.ar    1  UNL1        0.0668
     23 C         142.6550  141.7860  161.7566 C.ar    1  UNL1        0.0185
     24 C         143.1677  142.6679  162.8563 C.ar    1  UNL1        0.0129
     25 N         141.9860  137.2470  156.0247 N.pl3   1  UNL1       -0.3184
     26 H         141.2744  137.5314  155.4067 H       1  UNL1        0.1482
     27 C         142.2761  135.7875  156.2137 C.3     1  UNL1        0.0704
     28 C         141.5055  134.7627  155.4353 C.3     1  UNL1        0.0195
     29 C         141.7956  133.3032  155.6243 C.3     1  UNL1        0.0017
     30 C         142.8563  132.8685  156.5916 C.3     1  UNL1        0.0001
     31 C         143.6270  133.8933  157.3701 C.3     1  UNL1        0.0017
     32 C         143.3369  135.3528  157.1811 C.3     1  UNL1        0.0195
@<TRIPOS>BOND
     1    18    19    1
     2    19    20   ar
     3    20    21   ar
     4    21    22   ar
     5    22     1    1
     6     1     2   ar
     7     2    10    1
     8    10    11   ar
     9    11    12   ar
    10    12    13   ar
    11    13    14    1
    12    13    15   ar
    13    15    16   ar
    14    16    17    1
    15     2     3   ar
    16     3     4   ar
    17     4     5   ar
    18     5    25    1
    19    25    27    1
    20    27    28    1
    21    28    29    1
    22    29    30    1
    23    30    31    1
    24    31    32    1
    25     5     6   ar
    26     6     7   ar
    27     7     8   ar
    28     8     9   ar
    29    22    23   ar
    30    23    24   ar
    31    24    19   ar
    32     9     1   ar
    33    16    10   ar
    34     9     4   ar
    35    32    27    1
    36    25    26    1
@<TRIPOS>MOLECULE
*****
 32 36 0 0 0
SMALL
GASTEIGER

@<TRIPOS>ATOM
      1 N         141.1795  139.4097  160.1622 N.ar    1  UNL1       -0.2753
      2 C         142.1792  138.5271  160.8489 C.ar    1  UNL1        0.1497
      3 N         142.8386  137.6745  159.8057 N.ar    1  UNL1       -0.2220
      4 C         142.2463  138.0302  158.4742 C.ar    1  UNL1        0.1485
      5 C         142.5083  137.5161  157.0896 C.ar    1  UNL1        0.1510
      6 N         141.7449  138.0744  155.9253 N.ar    1  UNL1       -0.2076
      7 C         140.7196  139.1469  156.1457 C.ar    1  UNL1        0.2015
      8 N         140.4576  139.6609  157.5303 N.ar    1  UNL1       -0.2045
      9 C         141.2210  139.1026  158.6945 C.ar    1  UNL1        0.1711
     10 C         142.4687  138.5016  162.3205 C.ar    1  UNL1        0.0451
     11 C         141.6062  137.6895  163.2406 C.ar    1  UNL1        0.0047
     12 C         141.8957  137.6640  164.7121 C.ar    1  UNL1        0.0115
     13 C         143.0478  138.4506  165.2636 C.ar    1  UNL1        0.0585
     14 CL        143.3373  138.4250  166.7352 Cl      1  UNL1       -0.0822
     15 C         143.9103  139.2626  164.3435 C.ar    1  UNL1        0.0229
     16 C         143.6207  139.2881  162.8720 C.ar    1  UNL1        0.0614
     17 CL        144.4833  140.1002  161.9518 Cl      1  UNL1       -0.0821
     18 CL        137.6367  143.4580  162.8193 Cl      1  UNL1       -0.0822
     19 C         138.5224  142.4459  162.1550 C.ar    1  UNL1        0.0578
     20 C         137.9516  141.1380  161.6930 C.ar    1  UNL1        0.0129
     21 C         138.8373  140.1259  161.0288 C.ar    1  UNL1        0.0185
     22 C         140.2938  140.4218  160.8264 C.ar    1  UNL1        0.0668
     23 C         140.8646  141.7297  161.2884 C.ar    1  UNL1        0.0185
     24 C         139.9789  142.7418  161.9527 C.ar    1  UNL1        0.0129
     25 N         143.5336  136.4437  156.8693 N.pl3   1  UNL1       -0.3184
     26 H         144.4923  136.6663  156.8956 H       1  UNL1        0.1482
     27 C         143.0984  135.0320  156.6088 C.3     1  UNL1        0.0704
     28 C         143.7965  133.8938  157.2921 C.3     1  UNL1        0.0195
     29 C         143.3612  132.4821  157.0317 C.3     1  UNL1        0.0017
     30 C         142.2279  132.2088  156.0879 C.3     1  UNL1        0.0001
     31 C         141.5297  133.3471  155.4045 C.3     1  UNL1        0.0017
     32 C         141.9650  134.7587  155.6650 C.3     1  UNL1        0.0195
@<TRIPOS>BOND
     1    18    19    1
     2    19    20   ar
     3    20    21   ar
     4    21    22   ar
     5    22     1    1
     6     1     2   ar
     7     2    10    1
     8    10    11   ar
     9    11    12   ar
    10    12    13   ar
    11    13    14    1
    12    13    15   ar
    13    15    16   ar
    14    16    17    1
    15     2     3   ar
    16     3     4   ar
    17     4     5   ar
    18     5    25    1
    19    25    27    1
    20    27    28    1
    21    28    29    1
    22    29    30    1
    23    30    31    1
    24    31    32    1
    25     5     6   ar
    26     6     7   ar
    27     7     8   ar
    28     8     9   ar
    29    22    23   ar
    30    23    24   ar
    31    24    19   ar
    32     9     1   ar
    33    16    10   ar
    34     9     4   ar
    35    32    27    1
    36    25    26    1
@<TRIPOS>MOLECULE
*****
 32 36 0 0 0
SMALL
GASTEIGER

@<TRIPOS>ATOM
      1 N         142.1668  140.2043  161.5094 N.ar    1  UNL1       -0.2753
      2 C         140.9458  139.3492  161.6764 C.ar    1  UNL1        0.1497
      3 N         140.6752  138.6669  160.3683 N.ar    1  UNL1       -0.2220
      4 C         141.7291  139.1004  159.3928 C.ar    1  UNL1        0.1485
      5 C         141.9683  138.7527  157.9534 C.ar    1  UNL1        0.1510
      6 N         143.1294  139.3550  157.2193 N.ar    1  UNL1       -0.2076
      7 C         144.0513  140.3052  157.9245 C.ar    1  UNL1        0.2015
      8 N         143.8120  140.6529  159.3639 N.ar    1  UNL1       -0.2045
      9 C         142.6509  140.0505  160.0980 C.ar    1  UNL1        0.1711
     10 C         140.1372  139.2021  162.9314 C.ar    1  UNL1        0.0451
     11 C         139.1497  140.2636  163.3159 C.ar    1  UNL1        0.0047
     12 C         138.3412  140.1166  164.5708 C.ar    1  UNL1        0.0115
     13 C         138.5203  138.9080  165.4411 C.ar    1  UNL1        0.0585
     14 CL        137.7118  138.7610  166.6960 Cl      1  UNL1       -0.0822
     15 C         139.5079  137.8466  165.0565 C.ar    1  UNL1        0.0229
     16 C         140.3164  137.9936  163.8016 C.ar    1  UNL1        0.0614
     17 CL        141.3040  136.9321  163.4170 Cl      1  UNL1       -0.0821
     18 CL        144.6744  143.6371  165.7435 Cl      1  UNL1       -0.0822
     19 C         144.0475  142.7789  164.6850 C.ar    1  UNL1        0.0578
     20 C         144.6600  141.4559  164.3321 C.ar    1  UNL1        0.0129
     21 C         144.0331  140.5977  163.2736 C.ar    1  UNL1        0.0185
     22 C         142.7937  141.0625  162.5679 C.ar    1  UNL1        0.0668
     23 C         142.1813  142.3855  162.9208 C.ar    1  UNL1        0.0185
     24 C         142.8082  143.2437  163.9794 C.ar    1  UNL1        0.0129
     25 N         141.0464  137.8025  157.2481 N.pl3   1  UNL1       -0.3184
     26 H         140.0750  137.9622  157.2558 H       1  UNL1        0.1482
     27 C         141.6047  136.6091  156.5311 C.3     1  UNL1        0.0704
     28 C         140.8860  136.0450  155.3414 C.3     1  UNL1        0.0195
     29 C         141.4442  134.8516  154.6244 C.3     1  UNL1        0.0017
     30 C         142.7212  134.2223  155.0970 C.3     1  UNL1        0.0001
     31 C         143.4399  134.7864  156.2867 C.3     1  UNL1        0.0017
     32 C         142.8817  135.9798  157.0037 C.3     1  UNL1        0.0195
@<TRIPOS>BOND
     1    18    19    1
     2    19    20   ar
     3    20    21   ar
     4    21    22   ar
     5    22     1    1
     6     1     2   ar
     7     2    10    1
     8    10    11   ar
     9    11    12   ar
    10    12    13   ar
    11    13    14    1
    12    13    15   ar
    13    15    16   ar
    14    16    17    1
    15     2     3   ar
    16     3     4   ar
    17     4     5   ar
    18     5    25    1
    19    25    27    1
    20    27    28    1
    21    28    29    1
    22    29    30    1
    23    30    31    1
    24    31    32    1
    25     5     6   ar
    26     6     7   ar
    27     7     8   ar
    28     8     9   ar
    29    22    23   ar
    30    23    24   ar
    31    24    19   ar
    32     9     1   ar
    33    16    10   ar
    34     9     4   ar
    35    32    27    1
    36    25    26    1
@<TRIPOS>MOLECULE
*****
 32 36 0 0 0
SMALL
GASTEIGER

@<TRIPOS>ATOM
      1 N         139.8674  140.3754  161.1811 N.ar    1  UNL1       -0.2753
      2 C         140.7800  139.2135  161.4398 C.ar    1  UNL1        0.1497
      3 N         140.8100  138.3635  160.2043 N.ar    1  UNL1       -0.2220
      4 C         139.9159  139.0002  159.1819 C.ar    1  UNL1        0.1485
      5 C         139.5569  138.6083  157.7792 C.ar    1  UNL1        0.1510
      6 N         138.6154  139.4598  156.9802 N.ar    1  UNL1       -0.2076
      7 C         138.0329  140.7032  157.5839 C.ar    1  UNL1        0.2015
      8 N         138.3919  141.0952  158.9866 N.ar    1  UNL1       -0.2045
      9 C         139.3333  140.2436  159.7856 C.ar    1  UNL1        0.1711
     10 C         141.5308  138.9481  162.7111 C.ar    1  UNL1        0.0451
     11 C         142.9305  139.4614  162.8766 C.ar    1  UNL1        0.0047
     12 C         143.6812  139.1961  164.1477 C.ar    1  UNL1        0.0115
     13 C         143.0323  138.4173  165.2534 C.ar    1  UNL1        0.0585
     14 CL        143.7831  138.1520  166.5246 Cl      1  UNL1       -0.0822
     15 C         141.6327  137.9040  165.0879 C.ar    1  UNL1        0.0229
     16 C         140.8819  138.1693  163.8167 C.ar    1  UNL1        0.0614
     17 CL        139.4822  137.6560  163.6512 Cl      1  UNL1       -0.0821
     18 CL        138.5793  144.7779  165.0488 Cl      1  UNL1       -0.0822
     19 C         138.9013  143.6773  164.0819 C.ar    1  UNL1        0.0578
     20 C         137.8630  142.6492  163.7428 C.ar    1  UNL1        0.0129
     21 C         138.1851  141.5486  162.7759 C.ar    1  UNL1        0.0185
     22 C         139.5454  141.4760  162.1480 C.ar    1  UNL1        0.0668
     23 C         140.5837  142.5041  162.4871 C.ar    1  UNL1        0.0185
     24 C         140.2616  143.6047  163.4540 C.ar    1  UNL1        0.0129
     25 N         140.1395  137.3648  157.1755 N.pl3   1  UNL1       -0.3184
     26 H         139.6133  136.5329  157.1582 H       1  UNL1        0.1482
     27 C         141.5238  137.3888  156.5983 C.3     1  UNL1        0.0704
     28 C         142.1569  138.6956  156.2221 C.3     1  UNL1        0.0195
     29 C         143.5412  138.7196  155.6449 C.3     1  UNL1        0.0017
     30 C         144.2923  137.4370  155.4438 C.3     1  UNL1        0.0001
     31 C         143.6592  136.1301  155.8199 C.3     1  UNL1        0.0017
     32 C         142.2749  136.1061  156.3972 C.3     1  UNL1        0.0195
@<TRIPOS>BOND
     1    18    19    1
     2    19    20   ar
     3    20    21   ar
     4    21    22   ar
     5    22     1    1
     6     1     2   ar
     7     2    10    1
     8    10    11   ar
     9    11    12   ar
    10    12    13   ar
    11    13    14    1
    12    13    15   ar
    13    15    16   ar
    14    16    17    1
    15     2     3   ar
    16     3     4   ar
    17     4     5   ar
    18     5    25    1
    19    25    27    1
    20    27    28    1
    21    28    29    1
    22    29    30    1
    23    30    31    1
    24    31    32    1
    25     5     6   ar
    26     6     7   ar
    27     7     8   ar
    28     8     9   ar
    29    22    23   ar
    30    23    24   ar
    31    24    19   ar
    32     9     1   ar
    33    16    10   ar
    34     9     4   ar
    35    32    27    1
    36    25    26    1
@<TRIPOS>MOLECULE
*****
 32 36 0 0 0
SMALL
GASTEIGER

@<TRIPOS>ATOM
      1 N         142.2209  140.0958  161.4510 N.ar    1  UNL1       -0.2753
      2 C         141.0287  139.2019  161.6228 C.ar    1  UNL1        0.1497
      3 N         140.7806  138.5042  160.3183 N.ar    1  UNL1       -0.2220
      4 C         141.8195  138.9670  159.3403 C.ar    1  UNL1        0.1485
      5 C         142.0700  138.6198  157.9027 C.ar    1  UNL1        0.1510
      6 N         143.2105  139.2562  157.1651 N.ar    1  UNL1       -0.2076
      7 C         144.1006  140.2399  157.8651 C.ar    1  UNL1        0.2015
      8 N         143.8502  140.5871  159.3027 N.ar    1  UNL1       -0.2045
      9 C         142.7097  139.9507  160.0403 C.ar    1  UNL1        0.1711
     10 C         140.2256  139.0349  162.8787 C.ar    1  UNL1        0.0451
     11 C         140.4795  137.8641  163.7813 C.ar    1  UNL1        0.0047
     12 C         139.6764  137.6972  165.0371 C.ar    1  UNL1        0.0115
     13 C         138.6194  138.7011  165.3904 C.ar    1  UNL1        0.0585
     14 CL        137.8163  138.5342  166.6463 Cl      1  UNL1       -0.0822
     15 C         138.3655  139.8720  164.4879 C.ar    1  UNL1        0.0229
     16 C         139.1686  140.0389  163.2320 C.ar    1  UNL1        0.0614
     17 CL        138.9147  141.2098  162.3294 Cl      1  UNL1       -0.0821
     18 CL        144.6146  143.6317  165.6662 Cl      1  UNL1       -0.0822
     19 C         144.0161  142.7478  164.6124 C.ar    1  UNL1        0.0578
     20 C         144.6091  141.3969  164.3413 C.ar    1  UNL1        0.0129
     21 C         144.0107  140.5129  163.2875 C.ar    1  UNL1        0.0185
     22 C         142.8193  140.9798  162.5048 C.ar    1  UNL1        0.0668
     23 C         142.2264  142.3307  162.7759 C.ar    1  UNL1        0.0185
     24 C         142.8248  143.2146  163.8297 C.ar    1  UNL1        0.0129
     25 N         141.1798  137.6361  157.2027 N.pl3   1  UNL1       -0.3184
     26 H         140.2025  137.7534  157.2257 H       1  UNL1        0.1482
     27 C         141.7785  136.4737  156.4676 C.3     1  UNL1        0.0704
     28 C         142.9752  135.7661  157.0308 C.3     1  UNL1        0.0195
     29 C         143.5740  134.6037  156.2957 C.3     1  UNL1        0.0017
     30 C         142.9761  134.1489  154.9974 C.3     1  UNL1        0.0001
     31 C         141.7793  134.8565  154.4342 C.3     1  UNL1        0.0017
     32 C         141.1805  136.0189  155.1692 C.3     1  UNL1        0.0195
@<TRIPOS>BOND
     1    18    19    1
     2    19    20   ar
     3    20    21   ar
     4    21    22   ar
     5    22     1    1
     6     1     2   ar
     7     2    10    1
     8    10    11   ar
     9    11    12   ar
    10    12    13   ar
    11    13    14    1
    12    13    15   ar
    13    15    16   ar
    14    16    17    1
    15     2     3   ar
    16     3     4   ar
    17     4     5   ar
    18     5    25    1
    19    25    27    1
    20    27    28    1
    21    28    29    1
    22    29    30    1
    23    30    31    1
    24    31    32    1
    25     5     6   ar
    26     6     7   ar
    27     7     8   ar
    28     8     9   ar
    29    22    23   ar
    30    23    24   ar
    31    24    19   ar
    32     9     1   ar
    33    16    10   ar
    34     9     4   ar
    35    32    27    1
    36    25    26    1
@<TRIPOS>MOLECULE
*****
 32 36 0 0 0
SMALL
GASTEIGER

@<TRIPOS>ATOM
      1 N         142.6283  142.1270  161.2108 N.ar    1  UNL1       -0.2753
      2 C         143.4543  140.9060  161.4881 C.ar    1  UNL1        0.1497
      3 N         144.1979  140.5547  160.2337 N.ar    1  UNL1       -0.2220
      4 C         143.8314  141.5586  159.1811 C.ar    1  UNL1        0.1485
      5 C         144.2557  141.7133  157.7507 C.ar    1  UNL1        0.1510
      6 N         143.7100  142.8398  156.9242 N.ar    1  UNL1       -0.2076
      7 C         142.7399  143.8116  157.5280 C.ar    1  UNL1        0.2015
      8 N         142.3156  143.6568  158.9584 N.ar    1  UNL1       -0.2045
      9 C         142.8613  142.5303  159.7849 C.ar    1  UNL1        0.1711
     10 C         143.5244  140.1663  162.7912 C.ar    1  UNL1        0.0451
     11 C         142.4544  139.1788  163.1515 C.ar    1  UNL1        0.0047
     12 C         142.5245  138.4391  164.4545 C.ar    1  UNL1        0.0115
     13 C         143.6646  138.6869  165.3972 C.ar    1  UNL1        0.0585
     14 CL        143.7347  137.9472  166.7003 Cl      1  UNL1       -0.0822
     15 C         144.7346  139.6744  165.0369 C.ar    1  UNL1        0.0229
     16 C         144.6645  140.4141  163.7339 C.ar    1  UNL1        0.0614
     17 CL        145.7346  141.4016  163.3735 Cl      1  UNL1       -0.0821
     18 CL        139.0246  144.9095  165.1187 Cl      1  UNL1       -0.0822
     19 C         139.9255  144.2139  164.1417 C.ar    1  UNL1        0.0578
     20 C         139.4252  143.0259  163.3746 C.ar    1  UNL1        0.0129
     21 C         140.3261  142.3303  162.3977 C.ar    1  UNL1        0.0185
     22 C         141.7274  142.8226  162.1877 C.ar    1  UNL1        0.0668
     23 C         142.2277  144.0106  162.9548 C.ar    1  UNL1        0.0185
     24 C         141.3268  144.7062  163.9318 C.ar    1  UNL1        0.0129
     25 N         145.2258  140.7415  157.1468 N.pl3   1  UNL1       -0.3184
     26 H         145.3438  139.8502  157.5479 H       1  UNL1        0.1482
     27 C         146.0162  141.1278  155.9319 C.3     1  UNL1        0.0704
     28 C         145.6327  140.5897  154.5853 C.3     1  UNL1        0.0195
     29 C         146.4231  140.9760  153.3704 C.3     1  UNL1        0.0017
     30 C         147.5969  141.9004  153.5020 C.3     1  UNL1        0.0001
     31 C         147.9805  142.4387  154.8486 C.3     1  UNL1        0.0017
     32 C         147.1901  142.0524  156.0635 C.3     1  UNL1        0.0195
@<TRIPOS>BOND
     1    18    19    1
     2    19    20   ar
     3    20    21   ar
     4    21    22   ar
     5    22     1    1
     6     1     2   ar
     7     2    10    1
     8    10    11   ar
     9    11    12   ar
    10    12    13   ar
    11    13    14    1
    12    13    15   ar
    13    15    16   ar
    14    16    17    1
    15     2     3   ar
    16     3     4   ar
    17     4     5   ar
    18     5    25    1
    19    25    27    1
    20    27    28    1
    21    28    29    1
    22    29    30    1
    23    30    31    1
    24    31    32    1
    25     5     6   ar
    26     6     7   ar
    27     7     8   ar
    28     8     9   ar
    29    22    23   ar
    30    23    24   ar
    31    24    19   ar
    32     9     1   ar
    33    16    10   ar
    34     9     4   ar
    35    32    27    1
    36    25    26    1
@<TRIPOS>MOLECULE
*****
 32 36 0 0 0
SMALL
GASTEIGER

@<TRIPOS>ATOM
      1 N         139.2818  140.9615  160.4577 N.ar    1  UNL1       -0.2753
      2 C         138.7885  142.3589  160.6901 C.ar    1  UNL1        0.1497
      3 N         138.3637  142.9264  159.3682 N.ar    1  UNL1       -0.2220
      4 C         138.5944  141.8796  158.3187 C.ar    1  UNL1        0.1485
      5 C         138.3611  141.8754  156.8370 C.ar    1  UNL1        0.1510
      6 N         138.6952  140.6568  156.0286 N.ar    1  UNL1       -0.2076
      7 C         139.2626  139.4425  156.7020 C.ar    1  UNL1        0.2015
      8 N         139.4959  139.4468  158.1837 N.ar    1  UNL1       -0.2045
      9 C         139.1618  140.6653  158.9921 C.ar    1  UNL1        0.1711
     10 C         138.7303  143.0649  162.0123 C.ar    1  UNL1        0.0451
     11 C         139.5747  144.2815  162.2508 C.ar    1  UNL1        0.0047
     12 C         139.5165  144.9874  163.5729 C.ar    1  UNL1        0.0115
     13 C         138.6139  144.4767  164.6567 C.ar    1  UNL1        0.0585
     14 CL        138.5557  145.1827  165.9790 Cl      1  UNL1       -0.0822
     15 C         137.7695  143.2602  164.4183 C.ar    1  UNL1        0.0229
     16 C         137.8277  142.5543  163.0961 C.ar    1  UNL1        0.0614
     17 CL        136.9833  141.3376  162.8576 Cl      1  UNL1       -0.0821
     18 CL        141.3685  137.2146  164.6536 Cl      1  UNL1       -0.0822
     19 C         140.8469  138.1513  163.6046 C.ar    1  UNL1        0.0578
     20 C         139.6484  137.7697  162.7874 C.ar    1  UNL1        0.0129
     21 C         139.1267  138.7064  161.7384 C.ar    1  UNL1        0.0185
     22 C         139.8035  140.0248  161.5066 C.ar    1  UNL1        0.0668
     23 C         141.0020  140.4064  162.3239 C.ar    1  UNL1        0.0185
     24 C         141.5236  139.4697  163.3729 C.ar    1  UNL1        0.0129
     25 N         137.7936  143.0898  156.1636 N.pl3   1  UNL1       -0.3184
     26 H         136.8385  143.1203  155.9270 H       1  UNL1        0.1482
     27 C         138.6815  144.2576  155.8509 C.3     1  UNL1        0.0704
     28 C         138.0902  145.5257  155.3104 C.3     1  UNL1        0.0195
     29 C         138.9781  146.6936  154.9976 C.3     1  UNL1        0.0017
     30 C         140.4573  146.5933  155.2254 C.3     1  UNL1        0.0001
     31 C         141.0486  145.3252  155.7660 C.3     1  UNL1        0.0017
     32 C         140.1608  144.1573  156.0787 C.3     1  UNL1        0.0195
@<TRIPOS>BOND
     1    18    19    1
     2    19    20   ar
     3    20    21   ar
     4    21    22   ar
     5    22     1    1
     6     1     2   ar
     7     2    10    1
     8    10    11   ar
     9    11    12   ar
    10    12    13   ar
    11    13    14    1
    12    13    15   ar
    13    15    16   ar
    14    16    17    1
    15     2     3   ar
    16     3     4   ar
    17     4     5   ar
    18     5    25    1
    19    25    27    1
    20    27    28    1
    21    28    29    1
    22    29    30    1
    23    30    31    1
    24    31    32    1
    25     5     6   ar
    26     6     7   ar
    27     7     8   ar
    28     8     9   ar
    29    22    23   ar
    30    23    24   ar
    31    24    19   ar
    32     9     1   ar
    33    16    10   ar
    34     9     4   ar
    35    32    27    1
    36    25    26    1
