@<TRIPOS>MOLECULE
*****
 20 22 0 0 0
SMALL
GASTEIGER

@<TRIPOS>ATOM
      1 C         140.8566  144.5630  159.4229 C.ar    1  UNL1        0.1401
      2 C         139.9048  143.9725  158.4252 C.ar    1  UNL1        0.0370
      3 C         138.8849  142.9651  158.8668 C.ar    1  UNL1        0.0047
      4 C         138.8169  142.5482  160.3061 C.ar    1  UNL1        0.0193
      5 C         139.7687  143.1386  161.3037 C.ar    1  UNL1        0.0849
      6 N         139.7007  142.7217  162.7431 N.ar    1  UNL1       -0.2370
      7 C         140.6526  143.3122  163.7407 C.ar    1  UNL1        0.1228
      8 C         141.6724  144.3196  163.2991 C.ar    1  UNL1        0.0277
      9 C         141.7405  144.7365  161.8598 C.ar    1  UNL1        0.0067
     10 C         140.7886  144.1461  160.8621 C.ar    1  UNL1        0.0517
     11 C         142.0725  145.8483  157.5203 C.3     1  UNL1        0.2525
     12 O         141.8765  145.5704  158.9812 O.3     1  UNL1       -0.4714
     13 C         140.5846  142.8953  165.1800 C.1     1  UNL1       -0.0405
     14 C         140.5166  142.4784  166.6193 C.1     1  UNL1       -0.0583
     15 C         140.4487  142.0615  168.0586 C.ar    1  UNL1        0.0420
     16 C         140.4303  143.1005  169.1403 C.ar    1  UNL1        0.0082
     17 C         140.3624  142.6836  170.5796 C.ar    1  UNL1        0.0006
     18 C         140.3128  141.2277  170.9372 C.ar    1  UNL1        0.0000
     19 C         140.3311  140.1887  169.8555 C.ar    1  UNL1        0.0006
     20 C         140.3991  140.6056  168.4162 C.ar    1  UNL1        0.0082
@<TRIPOS>BOND
     1    11    12    1
     2    12     1    1
     3     1     2   ar
     4     2     3   ar
     5     3     4   ar
     6     4     5   ar
     7     5     6   ar
     8     6     7   ar
     9     7    13    1
    10    13    14    3
    11    14    15    1
    12    15    16   ar
    13    16    17   ar
    14    17    18   ar
    15    18    19   ar
    16    19    20   ar
    17     7     8   ar
    18     8     9   ar
    19     9    10   ar
    20    10     1   ar
    21    10     5   ar
    22    20    15   ar
@<TRIPOS>MOLECULE
*****
 20 22 0 0 0
SMALL
GASTEIGER

@<TRIPOS>ATOM
      1 C         141.1215  144.9758  159.0136 C.ar    1  UNL1        0.1401
      2 C         142.2160  144.4194  158.1521 C.ar    1  UNL1        0.0370
      3 C         143.1742  143.4116  158.7145 C.ar    1  UNL1        0.0047
      4 C         143.0377  142.9601  160.1384 C.ar    1  UNL1        0.0193
      5 C         141.9431  143.5165  160.9999 C.ar    1  UNL1        0.0849
      6 N         141.8066  143.0651  162.4239 N.ar    1  UNL1       -0.2370
      7 C         140.7121  143.6215  163.2854 C.ar    1  UNL1        0.1228
      8 C         139.7539  144.6293  162.7230 C.ar    1  UNL1        0.0277
      9 C         139.8904  145.0808  161.2991 C.ar    1  UNL1        0.0067
     10 C         140.9850  144.5244  160.4375 C.ar    1  UNL1        0.0517
     11 C         140.1403  146.2549  156.9762 C.3     1  UNL1        0.2525
     12 O         140.1633  145.9836  158.4513 O.3     1  UNL1       -0.4714
     13 C         140.5756  143.1701  164.7094 C.1     1  UNL1       -0.0405
     14 C         140.4391  142.7187  166.1333 C.1     1  UNL1       -0.0583
     15 C         140.3026  142.2674  167.5572 C.ar    1  UNL1        0.0420
     16 C         139.9960  140.8311  167.8627 C.ar    1  UNL1        0.0082
     17 C         139.8595  140.3797  169.2866 C.ar    1  UNL1        0.0006
     18 C         140.0296  141.3646  170.4052 C.ar    1  UNL1        0.0000
     19 C         140.3361  142.8008  170.0998 C.ar    1  UNL1        0.0006
     20 C         140.4726  143.2522  168.6758 C.ar    1  UNL1        0.0082
@<TRIPOS>BOND
     1    11    12    1
     2    12     1    1
     3     1     2   ar
     4     2     3   ar
     5     3     4   ar
     6     4     5   ar
     7     5     6   ar
     8     6     7   ar
     9     7    13    1
    10    13    14    3
    11    14    15    1
    12    15    16   ar
    13    16    17   ar
    14    17    18   ar
    15    18    19   ar
    16    19    20   ar
    17     7     8   ar
    18     8     9   ar
    19     9    10   ar
    20    10     1   ar
    21    10     5   ar
    22    20    15   ar
@<TRIPOS>MOLECULE
*****
 20 22 0 0 0
SMALL
GASTEIGER

@<TRIPOS>ATOM
      1 C         141.5186  144.7910  159.1206 C.ar    1  UNL1        0.1401
      2 C         142.4089  144.3295  158.0051 C.ar    1  UNL1        0.0370
      3 C         143.4876  143.3225  158.2741 C.ar    1  UNL1        0.0047
      4 C         143.6760  142.7770  159.6585 C.ar    1  UNL1        0.0193
      5 C         142.7857  143.2384  160.7740 C.ar    1  UNL1        0.0849
      6 N         142.9741  142.6928  162.1586 N.ar    1  UNL1       -0.2370
      7 C         142.0838  143.1542  163.2741 C.ar    1  UNL1        0.1228
      8 C         141.0051  144.1612  163.0052 C.ar    1  UNL1        0.0277
      9 C         140.8167  144.7068  161.6207 C.ar    1  UNL1        0.0067
     10 C         141.7070  144.2454  160.5051 C.ar    1  UNL1        0.0517
     11 C         140.1037  146.1781  157.4401 C.3     1  UNL1        0.2525
     12 O         140.4399  145.7980  158.8517 O.3     1  UNL1       -0.4714
     13 C         142.2722  142.6087  164.6587 C.1     1  UNL1       -0.0405
     14 C         142.4606  142.0631  166.0432 C.1     1  UNL1       -0.0583
     15 C         142.6491  141.5176  167.4276 C.ar    1  UNL1        0.0420
     16 C         143.2694  142.3725  168.4927 C.ar    1  UNL1        0.0082
     17 C         143.4578  141.8270  169.8772 C.ar    1  UNL1        0.0006
     18 C         143.0260  140.4265  170.1967 C.ar    1  UNL1        0.0000
     19 C         142.4057  139.5715  169.1317 C.ar    1  UNL1        0.0006
     20 C         142.2172  140.1171  167.7471 C.ar    1  UNL1        0.0082
@<TRIPOS>BOND
     1    11    12    1
     2    12     1    1
     3     1     2   ar
     4     2     3   ar
     5     3     4   ar
     6     4     5   ar
     7     5     6   ar
     8     6     7   ar
     9     7    13    1
    10    13    14    3
    11    14    15    1
    12    15    16   ar
    13    16    17   ar
    14    17    18   ar
    15    18    19   ar
    16    19    20   ar
    17     7     8   ar
    18     8     9   ar
    19     9    10   ar
    20    10     1   ar
    21    10     5   ar
    22    20    15   ar
@<TRIPOS>MOLECULE
*****
 20 22 0 0 0
SMALL
GASTEIGER

@<TRIPOS>ATOM
      1 C         139.9499  141.1319  167.7362 C.ar    1  UNL1        0.1401
      2 C         139.1934  139.8894  168.1019 C.ar    1  UNL1        0.0370
      3 C         138.4260  139.1422  167.0518 C.ar    1  UNL1        0.0047
      4 C         138.4150  139.6375  165.6360 C.ar    1  UNL1        0.0193
      5 C         139.1715  140.8800  165.2703 C.ar    1  UNL1        0.0849
      6 N         139.1606  141.3754  163.8545 N.ar    1  UNL1       -0.2370
      7 C         139.9171  142.6180  163.4888 C.ar    1  UNL1        0.1228
      8 C         140.6845  143.3652  164.5389 C.ar    1  UNL1        0.0277
      9 C         140.6955  142.8699  165.9547 C.ar    1  UNL1        0.0067
     10 C         139.9390  141.6273  166.3204 C.ar    1  UNL1        0.0517
     11 C         140.0687  142.2069  170.0984 C.3     1  UNL1        0.2525
     12 O         140.7173  141.8792  168.7863 O.3     1  UNL1       -0.4714
     13 C         139.9062  143.1134  162.0729 C.1     1  UNL1       -0.0405
     14 C         139.8953  143.6088  160.6572 C.1     1  UNL1       -0.0583
     15 C         139.8844  144.1042  159.2414 C.ar    1  UNL1        0.0420
     16 C         140.4942  145.4333  158.9072 C.ar    1  UNL1        0.0082
     17 C         140.4834  145.9287  157.4914 C.ar    1  UNL1        0.0006
     18 C         139.8627  145.0950  156.4098 C.ar    1  UNL1        0.0000
     19 C         139.2529  143.7660  156.7440 C.ar    1  UNL1        0.0006
     20 C         139.2638  143.2705  158.1598 C.ar    1  UNL1        0.0082
@<TRIPOS>BOND
     1    11    12    1
     2    12     1    1
     3     1     2   ar
     4     2     3   ar
     5     3     4   ar
     6     4     5   ar
     7     5     6   ar
     8     6     7   ar
     9     7    13    1
    10    13    14    3
    11    14    15    1
    12    15    16   ar
    13    16    17   ar
    14    17    18   ar
    15    18    19   ar
    16    19    20   ar
    17     7     8   ar
    18     8     9   ar
    19     9    10   ar
    20    10     1   ar
    21    10     5   ar
    22    20    15   ar
@<TRIPOS>MOLECULE
*****
 20 22 0 0 0
SMALL
GASTEIGER

@<TRIPOS>ATOM
      1 C         138.7380  139.7529  158.9726 C.ar    1  UNL1        0.1401
      2 C         139.7921  139.0247  158.1926 C.ar    1  UNL1        0.0370
      3 C         141.0527  138.5773  158.8715 C.ar    1  UNL1        0.0047
      4 C         141.2591  138.8582  160.3304 C.ar    1  UNL1        0.0193
      5 C         140.2050  139.5865  161.1104 C.ar    1  UNL1        0.0849
      6 N         140.4114  139.8675  162.5694 N.ar    1  UNL1       -0.2370
      7 C         139.3573  140.5957  163.3494 C.ar    1  UNL1        0.1228
      8 C         138.0967  141.0431  162.6705 C.ar    1  UNL1        0.0277
      9 C         137.8903  140.7621  161.2116 C.ar    1  UNL1        0.0067
     10 C         138.9444  140.0338  160.4315 C.ar    1  UNL1        0.0517
     11 C         137.5090  141.3589  157.3415 C.3     1  UNL1        0.2525
     12 O         137.4775  140.2003  158.2937 O.3     1  UNL1       -0.4714
     13 C         139.5637  140.8767  164.8083 C.1     1  UNL1       -0.0405
     14 C         139.7701  141.1576  166.2672 C.1     1  UNL1       -0.0583
     15 C         139.9765  141.4385  167.7261 C.ar    1  UNL1        0.0420
     16 C         140.5477  142.7550  168.1630 C.ar    1  UNL1        0.0082
     17 C         140.7542  143.0359  169.6219 C.ar    1  UNL1        0.0006
     18 C         140.3894  142.0004  170.6440 C.ar    1  UNL1        0.0000
     19 C         139.8182  140.6840  170.2072 C.ar    1  UNL1        0.0006
     20 C         139.6118  140.4030  168.7483 C.ar    1  UNL1        0.0082
@<TRIPOS>BOND
     1    11    12    1
     2    12     1    1
     3     1     2   ar
     4     2     3   ar
     5     3     4   ar
     6     4     5   ar
     7     5     6   ar
     8     6     7   ar
     9     7    13    1
    10    13    14    3
    11    14    15    1
    12    15    16   ar
    13    16    17   ar
    14    17    18   ar
    15    18    19   ar
    16    19    20   ar
    17     7     8   ar
    18     8     9   ar
    19     9    10   ar
    20    10     1   ar
    21    10     5   ar
    22    20    15   ar
@<TRIPOS>MOLECULE
*****
 20 22 0 0 0
SMALL
GASTEIGER

@<TRIPOS>ATOM
      1 C         142.0136  137.9816  158.5314 C.ar    1  UNL1        0.1401
      2 C         140.7370  138.2156  157.7794 C.ar    1  UNL1        0.0370
      3 C         139.5779  138.8828  158.4587 C.ar    1  UNL1        0.0047
      4 C         139.6955  139.3159  159.8900 C.ar    1  UNL1        0.0193
      5 C         140.9721  139.0820  160.6419 C.ar    1  UNL1        0.0849
      6 N         141.0897  139.5151  162.0732 N.ar    1  UNL1       -0.2370
      7 C         142.3663  139.2812  162.8252 C.ar    1  UNL1        0.1228
      8 C         143.5253  138.6140  162.1459 C.ar    1  UNL1        0.0277
      9 C         143.4078  138.1808  160.7147 C.ar    1  UNL1        0.0067
     10 C         142.1311  138.4148  159.9626 C.ar    1  UNL1        0.0517
     11 C         142.9293  136.2209  156.8547 C.3     1  UNL1        0.2525
     12 O         143.1727  137.3144  157.8521 O.3     1  UNL1       -0.4714
     13 C         142.4839  139.7144  164.2565 C.1     1  UNL1       -0.0405
     14 C         142.6014  140.1475  165.6877 C.1     1  UNL1       -0.0583
     15 C         142.7189  140.5807  167.1190 C.ar    1  UNL1        0.0420
     16 C         142.5738  139.5740  168.2216 C.ar    1  UNL1        0.0082
     17 C         142.6913  140.0072  169.6529 C.ar    1  UNL1        0.0006
     18 C         142.9540  141.4470  169.9816 C.ar    1  UNL1        0.0000
     19 C         143.0992  142.4536  168.8790 C.ar    1  UNL1        0.0006
     20 C         142.9816  142.0204  167.4477 C.ar    1  UNL1        0.0082
@<TRIPOS>BOND
     1    11    12    1
     2    12     1    1
     3     1     2   ar
     4     2     3   ar
     5     3     4   ar
     6     4     5   ar
     7     5     6   ar
     8     6     7   ar
     9     7    13    1
    10    13    14    3
    11    14    15    1
    12    15    16   ar
    13    16    17   ar
    14    17    18   ar
    15    18    19   ar
    16    19    20   ar
    17     7     8   ar
    18     8     9   ar
    19     9    10   ar
    20    10     1   ar
    21    10     5   ar
    22    20    15   ar
@<TRIPOS>MOLECULE
*****
 20 22 0 0 0
SMALL
GASTEIGER

@<TRIPOS>ATOM
      1 C         144.4014  142.8648  162.6856 C.ar    1  UNL1        0.1401
      2 C         144.9944  142.5066  164.0160 C.ar    1  UNL1        0.0370
      3 C         145.2270  141.0678  164.3706 C.ar    1  UNL1        0.0047
      4 C         144.8666  139.9871  163.3947 C.ar    1  UNL1        0.0193
      5 C         144.2737  140.3453  162.0643 C.ar    1  UNL1        0.0849
      6 N         143.9133  139.2647  161.0884 N.ar    1  UNL1       -0.2370
      7 C         143.3203  139.6229  159.7580 C.ar    1  UNL1        0.1228
      8 C         143.0877  141.0617  159.4034 C.ar    1  UNL1        0.0277
      9 C         143.4480  142.1423  160.3793 C.ar    1  UNL1        0.0067
     10 C         144.0410  141.7841  161.7098 C.ar    1  UNL1        0.0517
     11 C         143.2233  145.1338  163.1476 C.3     1  UNL1        0.2525
     12 O         144.1688  144.3036  162.3311 O.3     1  UNL1       -0.4714
     13 C         142.9599  138.5422  158.7820 C.1     1  UNL1       -0.0405
     14 C         142.5995  137.4616  157.8062 C.1     1  UNL1       -0.0583
     15 C         142.2391  136.3810  156.8303 C.ar    1  UNL1        0.0420
     16 C         141.1308  136.6005  155.8436 C.ar    1  UNL1        0.0082
     17 C         140.7705  135.5199  154.8678 C.ar    1  UNL1        0.0006
     18 C         141.5184  134.2197  154.8785 C.ar    1  UNL1        0.0000
     19 C         142.6266  134.0001  155.8652 C.ar    1  UNL1        0.0006
     20 C         142.9870  135.0808  156.8411 C.ar    1  UNL1        0.0082
@<TRIPOS>BOND
     1    11    12    1
     2    12     1    1
     3     1     2   ar
     4     2     3   ar
     5     3     4   ar
     6     4     5   ar
     7     5     6   ar
     8     6     7   ar
     9     7    13    1
    10    13    14    3
    11    14    15    1
    12    15    16   ar
    13    16    17   ar
    14    17    18   ar
    15    18    19   ar
    16    19    20   ar
    17     7     8   ar
    18     8     9   ar
    19     9    10   ar
    20    10     1   ar
    21    10     5   ar
    22    20    15   ar
@<TRIPOS>MOLECULE
*****
 20 22 0 0 0
SMALL
GASTEIGER

@<TRIPOS>ATOM
      1 C         140.7141  143.8735  163.6997 C.ar    1  UNL1        0.1401
      2 C         139.8873  144.3628  164.8516 C.ar    1  UNL1        0.0370
      3 C         138.3928  144.4132  164.7341 C.ar    1  UNL1        0.0047
      4 C         137.7250  143.9742  163.4647 C.ar    1  UNL1        0.0193
      5 C         138.5519  143.4849  162.3128 C.ar    1  UNL1        0.0849
      6 N         137.8841  143.0459  161.0433 N.ar    1  UNL1       -0.2370
      7 C         138.7109  142.5566  159.8914 C.ar    1  UNL1        0.1228
      8 C         140.2055  142.5063  160.0089 C.ar    1  UNL1        0.0277
      9 C         140.8732  142.9452  161.2783 C.ar    1  UNL1        0.0067
     10 C         140.0464  143.4346  162.4303 C.ar    1  UNL1        0.0517
     11 C         143.0225  145.0587  163.5699 C.3     1  UNL1        0.2525
     12 O         142.2087  143.8232  163.8172 O.3     1  UNL1       -0.4714
     13 C         138.0432  142.1177  158.6219 C.1     1  UNL1       -0.0405
     14 C         137.3755  141.6787  157.3525 C.1     1  UNL1       -0.0583
     15 C         136.7079  141.2398  156.0831 C.ar    1  UNL1        0.0420
     16 C         135.2917  140.7462  156.1124 C.ar    1  UNL1        0.0082
     17 C         134.6240  140.3073  154.8429 C.ar    1  UNL1        0.0006
     18 C         135.3724  140.3620  153.5442 C.ar    1  UNL1        0.0000
     19 C         136.7886  140.8555  153.5148 C.ar    1  UNL1        0.0006
     20 C         137.4563  141.2945  154.7843 C.ar    1  UNL1        0.0082
@<TRIPOS>BOND
     1    11    12    1
     2    12     1    1
     3     1     2   ar
     4     2     3   ar
     5     3     4   ar
     6     4     5   ar
     7     5     6   ar
     8     6     7   ar
     9     7    13    1
    10    13    14    3
    11    14    15    1
    12    15    16   ar
    13    16    17   ar
    14    17    18   ar
    15    18    19   ar
    16    19    20   ar
    17     7     8   ar
    18     8     9   ar
    19     9    10   ar
    20    10     1   ar
    21    10     5   ar
    22    20    15   ar
@<TRIPOS>MOLECULE
*****
 20 22 0 0 0
SMALL
GASTEIGER

@<TRIPOS>ATOM
      1 C         139.6327  144.1002  162.3978 C.ar    1  UNL1        0.1401
      2 C         139.9916  144.7785  163.6866 C.ar    1  UNL1        0.0370
      3 C         141.4184  145.1451  163.9692 C.ar    1  UNL1        0.0047
      4 C         142.4863  144.8333  162.9631 C.ar    1  UNL1        0.0193
      5 C         142.1274  144.1550  161.6743 C.ar    1  UNL1        0.0849
      6 N         143.1953  143.8433  160.6681 N.ar    1  UNL1       -0.2370
      7 C         142.8365  143.1649  159.3793 C.ar    1  UNL1        0.1228
      8 C         141.4097  142.7984  159.0966 C.ar    1  UNL1        0.0277
      9 C         140.3418  143.1101  160.1028 C.ar    1  UNL1        0.0067
     10 C         140.7006  143.7884  161.3916 C.ar    1  UNL1        0.0517
     11 C         137.6980  142.3677  162.4703 C.3     1  UNL1        0.2525
     12 O         138.2059  143.7336  162.1151 O.3     1  UNL1       -0.4714
     13 C         143.9044  142.8532  158.3731 C.1     1  UNL1       -0.0405
     14 C         144.9723  142.5414  157.3670 C.1     1  UNL1       -0.0583
     15 C         146.0403  142.2297  156.3609 C.ar    1  UNL1        0.0420
     16 C         147.4828  142.4587  156.7028 C.ar    1  UNL1        0.0082
     17 C         148.5507  142.1469  155.6967 C.ar    1  UNL1        0.0006
     18 C         148.1762  141.6062  154.3486 C.ar    1  UNL1        0.0000
     19 C         146.7338  141.3772  154.0066 C.ar    1  UNL1        0.0006
     20 C         145.6658  141.6890  155.0128 C.ar    1  UNL1        0.0082
@<TRIPOS>BOND
     1    11    12    1
     2    12     1    1
     3     1     2   ar
     4     2     3   ar
     5     3     4   ar
     6     4     5   ar
     7     5     6   ar
     8     6     7   ar
     9     7    13    1
    10    13    14    3
    11    14    15    1
    12    15    16   ar
    13    16    17   ar
    14    17    18   ar
    15    18    19   ar
    16    19    20   ar
    17     7     8   ar
    18     8     9   ar
    19     9    10   ar
    20    10     1   ar
    21    10     5   ar
    22    20    15   ar
