@<TRIPOS>MOLECULE
*****
 28 29 0 0 0
SMALL
GASTEIGER

@<TRIPOS>ATOM
      1 C         140.9230  143.4736  163.1509 C.ar    1  UNL1        0.1255
      2 C         140.4644  144.1274  164.4206 C.ar    1  UNL1        0.0233
      3 C         139.9112  143.2920  165.5370 C.ar    1  UNL1        0.0383
      4 C         139.8166  141.8029  165.3836 C.ar    1  UNL1        0.1386
      5 C         140.2751  141.1492  164.1138 C.ar    1  UNL1        0.0383
      6 C         140.8283  141.9845  162.9975 C.ar    1  UNL1        0.0233
      7 S         141.4762  144.3089  162.0346 S.O2    1  UNL1        0.0768
      8 O         140.5697  145.4369  162.4294 O.2     1  UNL1       -0.1498
      9 O         142.3826  143.1809  161.6397 O.2     1  UNL1       -0.1498
     10 N         142.0078  145.8621  158.4214 N.am    1  UNL1       -0.2894
     11 C         141.4546  145.0268  159.5377 C.2     1  UNL1        0.3194
     12 O         140.3266  144.0739  159.2735 O.2     1  UNL1       -0.2512
     13 N         142.0293  145.1443  160.9182 N.am    1  UNL1       -0.1693
     14 H         142.7481  146.4875  158.5948 H       1  UNL1        0.1509
     15 H         142.7697  145.7696  161.0916 H       1  UNL1        0.1781
     16 C         140.1389  146.4257  156.7068 C.3     1  UNL1        0.0213
     17 C         141.4330  145.7446  157.0409 C.3     1  UNL1        0.0732
     18 C         142.1521  144.9460  155.9945 C.3     1  UNL1        0.0213
     19 O         139.2634  140.9676  166.4999 O.3     1  UNL1       -0.4754
     20 C         140.0621  139.8212  167.0456 C.3     1  UNL1        0.2068
     21 C         141.4115  140.0687  167.6520 C.3     1  UNL1        0.0646
     22 C         142.6531  139.7073  166.8918 C.3     1  UNL1        0.0759
     23 N         143.3073  140.7198  165.9991 N.3     1  UNL1       -0.2726
     24 C         143.9309  140.2873  164.7053 C.3     1  UNL1        0.0721
     25 C         144.5850  141.2998  163.8126 C.3     1  UNL1        0.0174
     26 C         144.6155  142.7448  164.2137 C.3     1  UNL1        0.0029
     27 C         143.9919  143.1774  165.5075 C.3     1  UNL1        0.0174
     28 C         143.3377  142.1649  166.4002 C.3     1  UNL1        0.0721
@<TRIPOS>BOND
     1    16    17    1
     2    17    18    1
     3    17    10    1
     4    10    11   am
     5    11    12    2
     6    11    13   am
     7    13     7    1
     8     7     8    2
     9     7     9    2
    10     7     1    1
    11     1     2   ar
    12     2     3   ar
    13     3     4   ar
    14     4    19    1
    15    19    20    1
    16    20    21    1
    17    21    22    1
    18    22    23    1
    19    23    24    1
    20    24    25    1
    21    25    26    1
    22    26    27    1
    23    27    28    1
    24     4     5   ar
    25     5     6   ar
    26     6     1   ar
    27    28    23    1
    28    10    14    1
    29    13    15    1
@<TRIPOS>MOLECULE
*****
 28 29 0 0 0
SMALL
GASTEIGER

@<TRIPOS>ATOM
      1 C         139.0808  139.1761  163.4465 C.ar    1  UNL1        0.1255
      2 C         139.7363  140.3783  162.8342 C.ar    1  UNL1        0.0233
      3 C         140.0836  140.3815  161.3749 C.ar    1  UNL1        0.0383
      4 C         139.7753  139.1825  160.5280 C.ar    1  UNL1        0.1386
      5 C         139.1198  137.9803  161.1403 C.ar    1  UNL1        0.0383
      6 C         138.7725  137.9771  162.5996 C.ar    1  UNL1        0.0233
      7 S         138.7336  139.1729  164.9057 S.O2    1  UNL1        0.0768
      8 O         138.0664  140.5073  164.7499 O.2     1  UNL1       -0.1498
      9 O         139.4007  137.8385  165.0616 O.2     1  UNL1       -0.1498
     10 N         138.9667  139.8014  168.8173 N.am    1  UNL1       -0.2894
     11 C         139.3140  139.8046  167.3581 C.2     1  UNL1        0.3194
     12 O         140.5890  140.4427  166.8919 O.2     1  UNL1       -0.2512
     13 N         138.3863  139.1697  166.3650 N.am    1  UNL1       -0.1693
     14 H         138.1299  139.3826  169.1233 H       1  UNL1        0.1509
     15 H         137.5495  138.7509  166.6709 H       1  UNL1        0.1781
     16 C         139.6648  141.8509  170.2534 C.3     1  UNL1        0.0213
     17 C         139.8945  140.4364  169.8104 C.3     1  UNL1        0.0732
     18 C         141.0519  139.6567  170.3605 C.3     1  UNL1        0.0213
     19 O         140.1226  139.1857  159.0687 O.3     1  UNL1       -0.4754
     20 C         141.5512  139.0348  158.6375 C.3     1  UNL1        0.2068
     21 C         142.4965  138.2020  159.4517 C.3     1  UNL1        0.0646
     22 C         143.6540  138.8499  160.1523 C.3     1  UNL1        0.0759
     23 N         143.6012  139.0786  161.6338 N.3     1  UNL1       -0.2726
     24 C         144.3712  140.2110  162.2457 C.3     1  UNL1        0.0721
     25 C         144.3185  140.4398  163.7272 C.3     1  UNL1        0.0174
     26 C         143.4956  139.5361  164.5968 C.3     1  UNL1        0.0029
     27 C         142.7254  138.4036  163.9849 C.3     1  UNL1        0.0174
     28 C         142.7782  138.1749  162.5033 C.3     1  UNL1        0.0721
@<TRIPOS>BOND
     1    16    17    1
     2    17    18    1
     3    17    10    1
     4    10    11   am
     5    11    12    2
     6    11    13   am
     7    13     7    1
     8     7     8    2
     9     7     9    2
    10     7     1    1
    11     1     2   ar
    12     2     3   ar
    13     3     4   ar
    14     4    19    1
    15    19    20    1
    16    20    21    1
    17    21    22    1
    18    22    23    1
    19    23    24    1
    20    24    25    1
    21    25    26    1
    22    26    27    1
    23    27    28    1
    24     4     5   ar
    25     5     6   ar
    26     6     1   ar
    27    28    23    1
    28    10    14    1
    29    13    15    1
@<TRIPOS>MOLECULE
*****
 28 29 0 0 0
SMALL
GASTEIGER

@<TRIPOS>ATOM
      1 C         138.4784  140.2748  164.4622 C.ar    1  UNL1        0.1255
      2 C         138.2855  139.1942  165.4844 C.ar    1  UNL1        0.0233
      3 C         138.8558  139.3547  166.8624 C.ar    1  UNL1        0.0383
      4 C         139.6191  140.5960  167.2182 C.ar    1  UNL1        0.1386
      5 C         139.8121  141.6766  166.1960 C.ar    1  UNL1        0.0383
      6 C         139.2418  141.5160  164.8180 C.ar    1  UNL1        0.0233
      7 S         137.9081  140.1143  163.0842 S.O2    1  UNL1        0.0768
      8 O         138.3397  138.6778  163.0729 O.2     1  UNL1       -0.1498
      9 O         137.4765  141.5508  163.0954 O.2     1  UNL1       -0.1498
     10 N         137.5984  140.1371  159.1277 N.am    1  UNL1       -0.2894
     11 C         138.1687  140.2977  160.5057 C.2     1  UNL1        0.3194
     12 O         139.5702  140.8022  160.6833 O.2     1  UNL1       -0.2512
     13 N         137.3377  139.9537  161.7061 N.am    1  UNL1       -0.1693
     14 H         136.6786  139.8060  159.0112 H       1  UNL1        0.1509
     15 H         136.4180  139.6226  161.5896 H       1  UNL1        0.1781
     16 C         138.3546  141.8560  157.3322 C.3     1  UNL1        0.0213
     17 C         138.4295  140.4811  157.9273 C.3     1  UNL1        0.0732
     18 C         139.3354  139.4503  157.3219 C.3     1  UNL1        0.0213
     19 O         140.1895  140.7565  168.5962 O.3     1  UNL1       -0.4754
     20 C         141.4025  139.9729  169.0019 C.3     1  UNL1        0.2068
     21 C         142.6590  140.0605  168.1873 C.3     1  UNL1        0.0646
     22 C         143.0121  138.9589  167.2324 C.3     1  UNL1        0.0759
     23 N         142.6501  139.0792  165.7817 N.3     1  UNL1       -0.2726
     24 C         141.9424  137.9523  165.0894 C.3     1  UNL1        0.0721
     25 C         141.5804  138.0726  163.6387 C.3     1  UNL1        0.0174
     26 C         141.9260  139.3197  162.8803 C.3     1  UNL1        0.0029
     27 C         142.6338  140.4466  163.5726 C.3     1  UNL1        0.0174
     28 C         142.9958  140.3264  165.0233 C.3     1  UNL1        0.0721
@<TRIPOS>BOND
     1    16    17    1
     2    17    18    1
     3    17    10    1
     4    10    11   am
     5    11    12    2
     6    11    13   am
     7    13     7    1
     8     7     8    2
     9     7     9    2
    10     7     1    1
    11     1     2   ar
    12     2     3   ar
    13     3     4   ar
    14     4    19    1
    15    19    20    1
    16    20    21    1
    17    21    22    1
    18    22    23    1
    19    23    24    1
    20    24    25    1
    21    25    26    1
    22    26    27    1
    23    27    28    1
    24     4     5   ar
    25     5     6   ar
    26     6     1   ar
    27    28    23    1
    28    10    14    1
    29    13    15    1
@<TRIPOS>MOLECULE
*****
 28 29 0 0 0
SMALL
GASTEIGER

@<TRIPOS>ATOM
      1 C         140.9251  143.9818  163.1058 C.ar    1  UNL1        0.1255
      2 C         139.8056  144.4670  163.9782 C.ar    1  UNL1        0.0233
      3 C         139.4688  143.7344  165.2431 C.ar    1  UNL1        0.0383
      4 C         140.2515  142.5165  165.6355 C.ar    1  UNL1        0.1386
      5 C         141.3710  142.0312  164.7630 C.ar    1  UNL1        0.0383
      6 C         141.7078  142.7639  163.4982 C.ar    1  UNL1        0.0233
      7 S         141.2619  144.7144  161.8410 S.O2    1  UNL1        0.0768
      8 O         140.4029  145.8638  162.2780 O.2     1  UNL1       -0.1498
      9 O         142.1209  143.5650  161.4039 O.2     1  UNL1       -0.1498
     10 N         141.0848  145.9970  158.0895 N.am    1  UNL1       -0.2894
     11 C         140.7480  145.2643  159.3543 C.2     1  UNL1        0.3194
     12 O         139.5604  144.3489  159.3973 O.2     1  UNL1       -0.2512
     13 N         141.5987  145.4471  160.5761 N.am    1  UNL1       -0.1693
     14 H         141.8642  146.5978  158.0612 H       1  UNL1        0.1509
     15 H         142.3781  146.0479  160.5479 H       1  UNL1        0.1781
     16 C         140.2447  144.5052  156.1353 C.3     1  UNL1        0.0213
     17 C         140.2340  145.8142  156.8676 C.3     1  UNL1        0.0732
     18 C         139.3726  146.9404  156.3782 C.3     1  UNL1        0.0213
     19 O         139.9148  141.7838  166.9003 O.3     1  UNL1       -0.4754
     20 C         139.8325  140.2861  166.9003 C.3     1  UNL1        0.2068
     21 C         138.5998  139.6027  166.3871 C.3     1  UNL1        0.0646
     22 C         138.6182  138.9301  165.0464 C.3     1  UNL1        0.0759
     23 N         138.7108  139.7530  163.7957 N.3     1  UNL1       -0.2726
     24 C         137.7357  140.8675  163.5573 C.3     1  UNL1        0.0721
     25 C         137.8283  141.6904  162.3066 C.3     1  UNL1        0.0174
     26 C         138.8960  141.3988  161.2943 C.3     1  UNL1        0.0029
     27 C         139.8713  140.2842  161.5327 C.3     1  UNL1        0.0174
     28 C         139.7787  139.4613  162.7834 C.3     1  UNL1        0.0721
@<TRIPOS>BOND
     1    16    17    1
     2    17    18    1
     3    17    10    1
     4    10    11   am
     5    11    12    2
     6    11    13   am
     7    13     7    1
     8     7     8    2
     9     7     9    2
    10     7     1    1
    11     1     2   ar
    12     2     3   ar
    13     3     4   ar
    14     4    19    1
    15    19    20    1
    16    20    21    1
    17    21    22    1
    18    22    23    1
    19    23    24    1
    20    24    25    1
    21    25    26    1
    22    26    27    1
    23    27    28    1
    24     4     5   ar
    25     5     6   ar
    26     6     1   ar
    27    28    23    1
    28    10    14    1
    29    13    15    1
@<TRIPOS>MOLECULE
*****
 28 29 0 0 0
SMALL
GASTEIGER

@<TRIPOS>ATOM
      1 C         138.3885  139.3251  163.2035 C.ar    1  UNL1        0.1255
      2 C         138.1178  140.5398  164.0409 C.ar    1  UNL1        0.0233
      3 C         138.2466  140.4657  165.5335 C.ar    1  UNL1        0.0383
      4 C         138.6462  139.1769  166.1888 C.ar    1  UNL1        0.1386
      5 C         138.9168  137.9622  165.3514 C.ar    1  UNL1        0.0383
      6 C         138.7880  138.0364  163.8588 C.ar    1  UNL1        0.0233
      7 S         138.2596  139.3993  161.7109 S.O2    1  UNL1        0.0768
      8 O         137.6358  138.0352  161.6970 O.2     1  UNL1       -0.1498
      9 O         138.8835  140.7633  161.7248 O.2     1  UNL1       -0.1498
     10 N         139.1280  139.0807  157.8516 N.am    1  UNL1       -0.2894
     11 C         139.2569  139.0066  159.3442 C.2     1  UNL1        0.3194
     12 O         140.5119  138.4657  159.9627 O.2     1  UNL1       -0.2512
     13 N         138.1308  139.4734  160.2183 N.am    1  UNL1       -0.1693
     14 H         138.3044  139.4358  157.4456 H       1  UNL1        0.1509
     15 H         137.3072  139.8284  159.8123 H       1  UNL1        0.1781
     16 C         141.3996  139.5340  156.6749 C.3     1  UNL1        0.0213
     17 C         140.2542  138.6140  156.9775 C.3     1  UNL1        0.0732
     18 C         140.2349  137.2272  156.4061 C.3     1  UNL1        0.0213
     19 O         138.7750  139.1028  167.6814 O.3     1  UNL1       -0.4754
     20 C         139.5287  140.1667  168.4229 C.3     1  UNL1        0.2068
     21 C         140.9235  139.8994  168.9059 C.3     1  UNL1        0.0646
     22 C         142.0989  140.3504  168.0904 C.3     1  UNL1        0.0759
     23 N         142.1209  140.1104  166.6099 N.3     1  UNL1       -0.2726
     24 C         142.4835  138.7568  166.0748 C.3     1  UNL1        0.0721
     25 C         142.5055  138.5168  164.5943 C.3     1  UNL1        0.0174
     26 C         142.1650  139.6303  163.6488 C.3     1  UNL1        0.0029
     27 C         141.8024  140.9840  164.1838 C.3     1  UNL1        0.0174
     28 C         141.7804  141.2240  165.6644 C.3     1  UNL1        0.0721
@<TRIPOS>BOND
     1    16    17    1
     2    17    18    1
     3    17    10    1
     4    10    11   am
     5    11    12    2
     6    11    13   am
     7    13     7    1
     8     7     8    2
     9     7     9    2
    10     7     1    1
    11     1     2   ar
    12     2     3   ar
    13     3     4   ar
    14     4    19    1
    15    19    20    1
    16    20    21    1
    17    21    22    1
    18    22    23    1
    19    23    24    1
    20    24    25    1
    21    25    26    1
    22    26    27    1
    23    27    28    1
    24     4     5   ar
    25     5     6   ar
    26     6     1   ar
    27    28    23    1
    28    10    14    1
    29    13    15    1
@<TRIPOS>MOLECULE
*****
 28 29 0 0 0
SMALL
GASTEIGER

@<TRIPOS>ATOM
      1 C         138.4553  139.7984  164.6081 C.ar    1  UNL1        0.1255
      2 C         138.6442  138.5213  163.8445 C.ar    1  UNL1        0.0233
      3 C         138.3063  138.4636  162.3841 C.ar    1  UNL1        0.0383
      4 C         137.7795  139.6830  161.6875 C.ar    1  UNL1        0.1386
      5 C         137.5906  140.9602  162.4511 C.ar    1  UNL1        0.0383
      6 C         137.9285  141.0178  163.9114 C.ar    1  UNL1        0.0233
      7 S         138.7931  139.8561  166.0684 S.O2    1  UNL1        0.0768
      8 O         138.4020  138.4155  166.2158 O.2     1  UNL1       -0.1498
      9 O         139.1843  141.2966  165.9210 O.2     1  UNL1       -0.1498
     10 N         140.8945  139.8352  169.4350 N.am    1  UNL1       -0.2894
     11 C         140.5566  139.7775  167.9747 C.2     1  UNL1        0.3194
     12 O         141.6445  139.5837  166.9602 O.2     1  UNL1       -0.2512
     13 N         139.1310  139.9137  167.5287 N.am    1  UNL1       -0.1693
     14 H         140.1805  139.9624  170.1008 H       1  UNL1        0.1509
     15 H         138.4170  140.0410  168.1945 H       1  UNL1        0.1781
     16 C         143.1762  140.9205  170.0402 C.3     1  UNL1        0.0213
     17 C         142.3203  139.6990  169.8809 C.3     1  UNL1        0.0732
     18 C         142.8900  138.3414  170.1674 C.3     1  UNL1        0.0213
     19 O         137.4417  139.6254  160.2272 O.3     1  UNL1       -0.4754
     20 C         138.4776  139.9828  159.2030 C.3     1  UNL1        0.2068
     21 C         139.5804  139.0175  158.8832 C.3     1  UNL1        0.0646
     22 C         140.9937  139.3385  159.2701 C.3     1  UNL1        0.0759
     23 N         141.4042  139.2975  160.7122 N.3     1  UNL1       -0.2726
     24 C         141.3511  140.5454  161.5429 C.3     1  UNL1        0.0721
     25 C         141.7616  140.5044  162.9850 C.3     1  UNL1        0.0174
     26 C         142.2252  139.2156  163.5965 C.3     1  UNL1        0.0029
     27 C         142.2784  137.9677  162.7659 C.3     1  UNL1        0.0174
     28 C         141.8679  138.0086  161.3237 C.3     1  UNL1        0.0721
@<TRIPOS>BOND
     1    16    17    1
     2    17    18    1
     3    17    10    1
     4    10    11   am
     5    11    12    2
     6    11    13   am
     7    13     7    1
     8     7     8    2
     9     7     9    2
    10     7     1    1
    11     1     2   ar
    12     2     3   ar
    13     3     4   ar
    14     4    19    1
    15    19    20    1
    16    20    21    1
    17    21    22    1
    18    22    23    1
    19    23    24    1
    20    24    25    1
    21    25    26    1
    22    26    27    1
    23    27    28    1
    24     4     5   ar
    25     5     6   ar
    26     6     1   ar
    27    28    23    1
    28    10    14    1
    29    13    15    1
@<TRIPOS>MOLECULE
*****
 28 29 0 0 0
SMALL
GASTEIGER

@<TRIPOS>ATOM
      1 C         140.6211  143.9232  162.3603 C.ar    1  UNL1        0.1255
      2 C         140.2236  142.5042  162.0806 C.ar    1  UNL1        0.0233
      3 C         139.7440  141.6255  163.1978 C.ar    1  UNL1        0.0383
      4 C         139.6620  142.1659  164.5946 C.ar    1  UNL1        0.1386
      5 C         140.0595  143.5849  164.8743 C.ar    1  UNL1        0.0383
      6 C         140.5391  144.4635  163.7572 C.ar    1  UNL1        0.0233
      7 S         141.1007  144.8018  161.2432 S.O2    1  UNL1        0.0768
      8 O         139.7191  145.3668  161.0945 O.2     1  UNL1       -0.1498
      9 O         142.4823  144.2369  161.3920 O.2     1  UNL1       -0.1498
     10 N         141.8088  146.1646  157.5838 N.am    1  UNL1       -0.2894
     11 C         141.3292  145.2859  158.7009 C.2     1  UNL1        0.3194
     12 O         140.5986  144.0126  158.3928 O.2     1  UNL1       -0.2512
     13 N         141.5803  145.6805  160.1261 N.am    1  UNL1       -0.1693
     14 H         142.2883  147.0003  157.7860 H       1  UNL1        0.1509
     15 H         142.0598  146.5162  160.3283 H       1  UNL1        0.1781
     16 C         140.3816  146.3363  155.4195 C.3     1  UNL1        0.0213
     17 C         141.5577  145.7699  156.1585 C.3     1  UNL1        0.0732
     18 C         142.4826  144.8089  155.4723 C.3     1  UNL1        0.0213
     19 O         139.1824  141.2872  165.7117 O.3     1  UNL1       -0.4754
     20 C         138.2885  140.1194  165.4165 C.3     1  UNL1        0.2068
     21 C         138.5631  138.7864  166.0471 C.3     1  UNL1        0.0646
     22 C         138.8375  137.5907  165.1839 C.3     1  UNL1        0.0759
     23 N         139.5183  137.7629  163.8585 N.3     1  UNL1       -0.2726
     24 C         141.0162  137.7705  163.7801 C.3     1  UNL1        0.0721
     25 C         141.6971  137.9427  162.4547 C.3     1  UNL1        0.0174
     26 C         140.8800  138.1073  161.2076 C.3     1  UNL1        0.0029
     27 C         139.3820  138.0997  161.2859 C.3     1  UNL1        0.0174
     28 C         138.7012  137.9275  162.6114 C.3     1  UNL1        0.0721
@<TRIPOS>BOND
     1    16    17    1
     2    17    18    1
     3    17    10    1
     4    10    11   am
     5    11    12    2
     6    11    13   am
     7    13     7    1
     8     7     8    2
     9     7     9    2
    10     7     1    1
    11     1     2   ar
    12     2     3   ar
    13     3     4   ar
    14     4    19    1
    15    19    20    1
    16    20    21    1
    17    21    22    1
    18    22    23    1
    19    23    24    1
    20    24    25    1
    21    25    26    1
    22    26    27    1
    23    27    28    1
    24     4     5   ar
    25     5     6   ar
    26     6     1   ar
    27    28    23    1
    28    10    14    1
    29    13    15    1
@<TRIPOS>MOLECULE
*****
 28 29 0 0 0
SMALL
GASTEIGER

@<TRIPOS>ATOM
      1 C         138.7145  138.8221  163.1845 C.ar    1  UNL1        0.1255
      2 C         138.3219  140.1071  163.8512 C.ar    1  UNL1        0.0233
      3 C         138.2427  140.1823  165.3472 C.ar    1  UNL1        0.0383
      4 C         138.5562  138.9724  166.1766 C.ar    1  UNL1        0.1386
      5 C         138.9488  137.6874  165.5099 C.ar    1  UNL1        0.0383
      6 C         139.0280  137.6122  164.0139 C.ar    1  UNL1        0.0233
      7 S         138.7936  138.7470  161.6885 S.O2    1  UNL1        0.0768
      8 O         140.2244  139.1943  161.7417 O.2     1  UNL1       -0.1498
      9 O         137.3628  138.2996  161.6353 O.2     1  UNL1       -0.1498
     10 N         138.5827  139.7893  157.8650 N.am    1  UNL1       -0.2894
     11 C         138.5036  139.8644  159.3610 C.2     1  UNL1        0.3194
     12 O         138.0553  141.1323  160.0256 O.2     1  UNL1       -0.2512
     13 N         138.8727  138.6718  160.1925 N.am    1  UNL1       -0.1693
     14 H         138.8770  138.9572  157.4288 H       1  UNL1        0.1509
     15 H         139.1670  137.8397  159.7563 H       1  UNL1        0.1781
     16 C         139.2796  141.9245  156.5592 C.3     1  UNL1        0.0213
     17 C         138.2135  140.9820  157.0336 C.3     1  UNL1        0.0732
     18 C         136.7783  141.2321  156.6766 C.3     1  UNL1        0.0213
     19 O         138.4771  139.0476  167.6726 O.3     1  UNL1       -0.4754
     20 C         139.2204  140.1216  168.4099 C.3     1  UNL1        0.2068
     21 C         140.6308  139.8830  168.8616 C.3     1  UNL1        0.0646
     22 C         141.7570  140.6593  168.2458 C.3     1  UNL1        0.0759
     23 N         141.6887  141.0629  166.8028 N.3     1  UNL1       -0.2726
     24 C         141.2165  142.4369  166.4298 C.3     1  UNL1        0.0721
     25 C         141.1482  142.8406  164.9868 C.3     1  UNL1        0.0174
     26 C         141.5522  141.8702  163.9167 C.3     1  UNL1        0.0029
     27 C         142.0245  140.4962  164.2896 C.3     1  UNL1        0.0174
     28 C         142.0928  140.0925  165.7326 C.3     1  UNL1        0.0721
@<TRIPOS>BOND
     1    16    17    1
     2    17    18    1
     3    17    10    1
     4    10    11   am
     5    11    12    2
     6    11    13   am
     7    13     7    1
     8     7     8    2
     9     7     9    2
    10     7     1    1
    11     1     2   ar
    12     2     3   ar
    13     3     4   ar
    14     4    19    1
    15    19    20    1
    16    20    21    1
    17    21    22    1
    18    22    23    1
    19    23    24    1
    20    24    25    1
    21    25    26    1
    22    26    27    1
    23    27    28    1
    24     4     5   ar
    25     5     6   ar
    26     6     1   ar
    27    28    23    1
    28    10    14    1
    29    13    15    1
@<TRIPOS>MOLECULE
*****
 28 29 0 0 0
SMALL
GASTEIGER

@<TRIPOS>ATOM
      1 C         140.9275  143.0899  161.2987 C.ar    1  UNL1        0.1255
      2 C         140.0566  141.8876  161.0841 C.ar    1  UNL1        0.0233
      3 C         140.2306  140.6721  161.9456 C.ar    1  UNL1        0.0383
      4 C         141.2755  140.6588  163.0217 C.ar    1  UNL1        0.1386
      5 C         142.1464  141.8611  163.2363 C.ar    1  UNL1        0.0383
      6 C         141.9723  143.0766  162.3748 C.ar    1  UNL1        0.0233
      7 S         140.7535  144.3054  160.4372 S.O2    1  UNL1        0.0768
      8 O         139.2655  144.2072  160.5992 O.2     1  UNL1       -0.1498
      9 O         142.2414  144.4036  160.2751 O.2     1  UNL1       -0.1498
     10 N         140.1555  146.5836  157.2430 N.am    1  UNL1       -0.2894
     11 C         140.3295  145.3680  158.1046 C.2     1  UNL1        0.3194
     12 O         140.2536  143.9996  157.4949 O.2     1  UNL1       -0.2512
     13 N         140.5794  145.5209  159.5756 N.am    1  UNL1       -0.1693
     14 H         140.2053  147.4817  157.6431 H       1  UNL1        0.1509
     15 H         140.6293  146.4191  159.9757 H       1  UNL1        0.1781
     16 C         141.0496  146.1561  154.8414 C.3     1  UNL1        0.0213
     17 C         139.9056  146.4306  155.7719 C.3     1  UNL1        0.0732
     18 C         138.5117  146.5522  155.2313 C.3     1  UNL1        0.0213
     19 O         141.4495  139.4433  163.8832 O.3     1  UNL1       -0.4754
     20 C         140.2476  138.6793  164.3539 C.3     1  UNL1        0.2068
     21 C         139.4169  139.2101  165.4846 C.3     1  UNL1        0.0646
     22 C         138.2688  140.1334  165.2026 C.3     1  UNL1        0.0759
     23 N         138.5162  141.6001  165.0086 N.3     1  UNL1       -0.2726
     24 C         139.5713  142.2961  165.8162 C.3     1  UNL1        0.0721
     25 C         139.8186  143.7628  165.6221 C.3     1  UNL1        0.0174
     26 C         139.0108  144.5335  164.6204 C.3     1  UNL1        0.0029
     27 C         137.9556  143.8375  163.8127 C.3     1  UNL1        0.0174
     28 C         137.7083  142.3708  164.0068 C.3     1  UNL1        0.0721
@<TRIPOS>BOND
     1    16    17    1
     2    17    18    1
     3    17    10    1
     4    10    11   am
     5    11    12    2
     6    11    13   am
     7    13     7    1
     8     7     8    2
     9     7     9    2
    10     7     1    1
    11     1     2   ar
    12     2     3   ar
    13     3     4   ar
    14     4    19    1
    15    19    20    1
    16    20    21    1
    17    21    22    1
    18    22    23    1
    19    23    24    1
    20    24    25    1
    21    25    26    1
    22    26    27    1
    23    27    28    1
    24     4     5   ar
    25     5     6   ar
    26     6     1   ar
    27    28    23    1
    28    10    14    1
    29    13    15    1
