@<TRIPOS>MOLECULE
*****
 25 28 0 0 0
SMALL
GASTEIGER

@<TRIPOS>ATOM
      1 C         139.4336  138.3521  164.4552 C.2     1  UNL1        0.0356
      2 C         138.4279  137.5207  165.1950 C.2     1  UNL1        0.0021
      3 C         138.0762  137.8558  166.6141 C.2     1  UNL1        0.0205
      4 C         138.7302  139.0222  167.2935 C.2     1  UNL1        0.1004
      5 N         138.5854  139.5898  168.6744 N.2     1  UNL1       -0.1486
      6 N         139.5017  140.7720  168.7881 N.2     1  UNL1       -0.1523
      7 C         140.2128  140.9350  167.4775 C.2     1  UNL1        0.0827
      8 C         139.7359  139.8536  166.5538 C.2     1  UNL1        0.0174
      9 C         140.0876  139.5185  165.1346 C.3     1  UNL1        0.0601
     10 C         139.3879  138.3238  160.4869 C.3     1  UNL1        0.1109
     11 N         139.0362  138.6589  161.9061 N.am    1  UNL1       -0.2994
     12 C         139.7853  138.0170  163.0360 C.2     1  UNL1        0.2422
     13 O         140.8861  137.0401  162.7468 O.2     1  UNL1       -0.2705
     14 H         138.3136  139.3001  162.0959 H       1  UNL1        0.1498
     15 C         141.2232  141.9936  167.1483 C.3     1  UNL1        0.0736
     16 C         141.0423  142.8502  165.9303 C.ar    1  UNL1       -0.0160
     17 C         139.8105  143.6934  165.7826 C.ar    1  UNL1       -0.0024
     18 C         139.6297  144.5500  164.5646 C.ar    1  UNL1        0.0185
     19 C         140.6806  144.5635  163.4943 C.ar    1  UNL1        0.0794
     20 C         141.9123  143.7203  163.6420 C.ar    1  UNL1        0.0379
     21 C         142.7706  143.9374  162.4312 C.ar    1  UNL1        0.1216
     22 N         142.0693  144.9148  161.5352 N.ar    1  UNL1       -0.1676
     23 N         140.7776  145.3018  162.1922 N.ar    1  UNL1       -0.2488
     24 C         139.7613  146.2589  161.6434 C.3     1  UNL1        0.1537
     25 C         142.0932  142.8637  164.8600 C.ar    1  UNL1       -0.0008
@<TRIPOS>BOND
     1    10    11    1
     2    11    12   am
     3    12    13    2
     4    12     1    1
     5     1     2    2
     6     2     3    1
     7     3     4    2
     8     4     5    1
     9     5     6    2
    10     6     7    1
    11     7    15    1
    12    15    16    1
    13    16    17   ar
    14    17    18   ar
    15    18    19   ar
    16    19    20   ar
    17    20    21   ar
    18    21    22   ar
    19    22    23   ar
    20    23    24    1
    21    20    25   ar
    22     7     8    2
    23     8     9    1
    24     9     1    1
    25     8     4    1
    26    25    16   ar
    27    23    19   ar
    28    11    14    1
@<TRIPOS>MOLECULE
*****
 25 28 0 0 0
SMALL
GASTEIGER

@<TRIPOS>ATOM
      1 C         142.5463  141.4711  166.7128 C.2     1  UNL1        0.0356
      2 C         142.6862  141.9807  168.1166 C.2     1  UNL1        0.0021
      3 C         141.6550  141.6302  169.1480 C.2     1  UNL1        0.0205
      4 C         140.4839  140.7702  168.7756 C.2     1  UNL1        0.1004
      5 N         139.3179  140.2629  169.5712 N.2     1  UNL1       -0.1486
      6 N         138.4573  139.4398  168.6591 N.2     1  UNL1       -0.1523
      7 C         139.0914  139.4384  167.2998 C.2     1  UNL1        0.0827
      8 C         140.3440  140.2606  167.3718 C.2     1  UNL1        0.0174
      9 C         141.3752  140.6111  166.3404 C.3     1  UNL1        0.0601
     10 C         145.1409  141.1126  163.7313 C.3     1  UNL1        0.1109
     11 N         144.1097  140.7621  164.7627 N.am    1  UNL1       -0.2994
     12 C         143.5775  141.8216  165.6814 C.2     1  UNL1        0.2422
     13 O         144.0765  143.2317  165.5687 O.2     1  UNL1       -0.2705
     14 H         143.7823  139.8366  164.8367 H       1  UNL1        0.1498
     15 C         138.5655  138.7378  166.0822 C.3     1  UNL1        0.0736
     16 C         138.5076  139.4590  164.7682 C.ar    1  UNL1       -0.0160
     17 C         138.8799  138.7439  163.5033 C.ar    1  UNL1       -0.0024
     18 C         138.8220  139.4651  162.1893 C.ar    1  UNL1        0.0185
     19 C         138.3920  140.9013  162.1402 C.ar    1  UNL1        0.0794
     20 C         138.0198  141.6163  163.4053 C.ar    1  UNL1        0.0379
     21 C         137.6368  143.0219  163.0478 C.ar    1  UNL1        0.1216
     22 N         137.7724  143.1755  161.5618 N.ar    1  UNL1       -0.1676
     23 N         138.2391  141.8650  161.0009 N.ar    1  UNL1       -0.2488
     24 C         138.5061  141.5699  159.5547 C.3     1  UNL1        0.1537
     25 C         138.0776  140.8951  164.7192 C.ar    1  UNL1       -0.0008
@<TRIPOS>BOND
     1    10    11    1
     2    11    12   am
     3    12    13    2
     4    12     1    1
     5     1     2    2
     6     2     3    1
     7     3     4    2
     8     4     5    1
     9     5     6    2
    10     6     7    1
    11     7    15    1
    12    15    16    1
    13    16    17   ar
    14    17    18   ar
    15    18    19   ar
    16    19    20   ar
    17    20    21   ar
    18    21    22   ar
    19    22    23   ar
    20    23    24    1
    21    20    25   ar
    22     7     8    2
    23     8     9    1
    24     9     1    1
    25     8     4    1
    26    25    16   ar
    27    23    19   ar
    28    11    14    1
@<TRIPOS>MOLECULE
*****
 25 28 0 0 0
SMALL
GASTEIGER

@<TRIPOS>ATOM
      1 C         140.9715  142.4992  166.6067 C.2     1  UNL1        0.0356
      2 C         140.4486  142.8520  167.9675 C.2     1  UNL1        0.0021
      3 C         140.7664  141.9764  169.1433 C.2     1  UNL1        0.0205
      4 C         141.6069  140.7479  168.9581 C.2     1  UNL1        0.1004
      5 N         142.0814  139.7016  169.9226 N.2     1  UNL1       -0.1486
      6 N         142.8975  138.7021  169.1577 N.2     1  UNL1       -0.1523
      7 C         142.9275  139.1307  167.7206 C.2     1  UNL1        0.0827
      8 C         142.1298  140.3951  167.5972 C.2     1  UNL1        0.0174
      9 C         141.8121  141.2707  166.4215 C.3     1  UNL1        0.0601
     10 C         138.9430  144.7725  164.0636 C.3     1  UNL1        0.1109
     11 N         139.2607  143.8969  165.2394 N.am    1  UNL1       -0.2994
     12 C         140.6538  143.3748  165.4309 C.2     1  UNL1        0.2422
     13 O         141.7291  143.7282  164.4467 O.2     1  UNL1       -0.2705
     14 H         138.5549  143.6649  165.8853 H       1  UNL1        0.1498
     15 C         143.6314  138.4198  166.6030 C.3     1  UNL1        0.0736
     16 C         143.0581  138.4483  165.2171 C.ar    1  UNL1       -0.0160
     17 C         143.8626  139.0137  164.0843 C.ar    1  UNL1       -0.0024
     18 C         143.2893  139.0423  162.6985 C.ar    1  UNL1        0.0185
     19 C         141.9116  138.5055  162.4454 C.ar    1  UNL1        0.0794
     20 C         141.1073  137.9401  163.5783 C.ar    1  UNL1        0.0379
     21 C         139.7875  137.4863  163.0285 C.ar    1  UNL1        0.1216
     22 N         139.7762  137.7712  161.5558 N.ar    1  UNL1       -0.1676
     23 N         141.0890  138.4011  161.1954 N.ar    1  UNL1       -0.2488
     24 C         141.5059  138.8481  159.8256 C.3     1  UNL1        0.1537
     25 C         141.6806  137.9115  164.9641 C.ar    1  UNL1       -0.0008
@<TRIPOS>BOND
     1    10    11    1
     2    11    12   am
     3    12    13    2
     4    12     1    1
     5     1     2    2
     6     2     3    1
     7     3     4    2
     8     4     5    1
     9     5     6    2
    10     6     7    1
    11     7    15    1
    12    15    16    1
    13    16    17   ar
    14    17    18   ar
    15    18    19   ar
    16    19    20   ar
    17    20    21   ar
    18    21    22   ar
    19    22    23   ar
    20    23    24    1
    21    20    25   ar
    22     7     8    2
    23     8     9    1
    24     9     1    1
    25     8     4    1
    26    25    16   ar
    27    23    19   ar
    28    11    14    1
@<TRIPOS>MOLECULE
*****
 25 28 0 0 0
SMALL
GASTEIGER

@<TRIPOS>ATOM
      1 C         139.6025  138.5106  164.6859 C.2     1  UNL1        0.0356
      2 C         138.2815  138.2967  165.3635 C.2     1  UNL1        0.0021
      3 C         138.0718  138.7807  166.7677 C.2     1  UNL1        0.0205
      4 C         139.1830  139.4786  167.4943 C.2     1  UNL1        0.1004
      5 N         139.2698  140.0616  168.8736 N.2     1  UNL1       -0.1486
      6 N         140.6445  140.6358  169.0485 N.2     1  UNL1       -0.1523
      7 C         141.4072  140.4078  167.7773 C.2     1  UNL1        0.0827
      8 C         140.5040  139.6926  166.8167 C.2     1  UNL1        0.0174
      9 C         140.7137  139.2086  165.4125 C.3     1  UNL1        0.0601
     10 C         139.2327  138.1422  160.7518 C.3     1  UNL1        0.1109
     11 N         139.0230  138.6262  162.1559 N.am    1  UNL1       -0.2994
     12 C         139.8123  138.0266  163.2817 C.2     1  UNL1        0.2422
     13 O         140.8113  136.9430  163.0033 O.2     1  UNL1       -0.2705
     14 H         138.3672  139.3375  162.3387 H       1  UNL1        0.1498
     15 C         142.8244  140.8222  167.5130 C.3     1  UNL1        0.0736
     16 C         143.2128  141.3475  166.1627 C.ar    1  UNL1       -0.0160
     17 C         143.7637  140.4147  165.1251 C.ar    1  UNL1       -0.0024
     18 C         144.1521  140.9400  163.7749 C.ar    1  UNL1        0.0185
     19 C         143.9896  142.3981  163.4621 C.ar    1  UNL1        0.0794
     20 C         143.4387  143.3308  164.4997 C.ar    1  UNL1        0.0379
     21 C         143.3925  144.7080  163.9072 C.ar    1  UNL1        0.1216
     22 N         143.9148  144.6265  162.5035 N.ar    1  UNL1       -0.1676
     23 N         144.2839  143.1988  162.2284 N.ar    1  UNL1       -0.2488
     24 C         144.8481  142.6656  160.9449 C.3     1  UNL1        0.1537
     25 C         143.0503  142.8055  165.8500 C.ar    1  UNL1       -0.0008
@<TRIPOS>BOND
     1    10    11    1
     2    11    12   am
     3    12    13    2
     4    12     1    1
     5     1     2    2
     6     2     3    1
     7     3     4    2
     8     4     5    1
     9     5     6    2
    10     6     7    1
    11     7    15    1
    12    15    16    1
    13    16    17   ar
    14    17    18   ar
    15    18    19   ar
    16    19    20   ar
    17    20    21   ar
    18    21    22   ar
    19    22    23   ar
    20    23    24    1
    21    20    25   ar
    22     7     8    2
    23     8     9    1
    24     9     1    1
    25     8     4    1
    26    25    16   ar
    27    23    19   ar
    28    11    14    1
@<TRIPOS>MOLECULE
*****
 25 28 0 0 0
SMALL
GASTEIGER

@<TRIPOS>ATOM
      1 C         138.9259  138.7906  164.9740 C.2     1  UNL1        0.0356
      2 C         138.0127  138.0286  165.8879 C.2     1  UNL1        0.0021
      3 C         137.9275  138.3958  167.3398 C.2     1  UNL1        0.0205
      4 C         138.7555  139.5249  167.8777 C.2     1  UNL1        0.1004
      5 N         138.8812  140.1111  169.2527 N.2     1  UNL1       -0.1486
      6 N         139.8721  141.2354  169.1885 N.2     1  UNL1       -0.1523
      7 C         140.3588  141.3441  167.7739 C.2     1  UNL1        0.0827
      8 C         139.6687  140.2869  166.9638 C.2     1  UNL1        0.0174
      9 C         139.7539  139.9198  165.5119 C.3     1  UNL1        0.0601
     10 C         138.2140  138.7426  161.0700 C.3     1  UNL1        0.1109
     11 N         138.1288  139.1097  162.5219 N.am    1  UNL1       -0.2994
     12 C         139.0111  138.4235  163.5221 C.2     1  UNL1        0.2422
     13 O         139.9787  137.3700  163.0704 O.2     1  UNL1       -0.2705
     14 H         137.4937  139.8012  162.8183 H       1  UNL1        0.1498
     15 C         141.3599  142.3358  167.2596 C.3     1  UNL1        0.0736
     16 C         141.1879  142.9366  165.8960 C.ar    1  UNL1       -0.0160
     17 C         142.3382  142.9532  164.9333 C.ar    1  UNL1       -0.0024
     18 C         142.1662  143.5540  163.5697 C.ar    1  UNL1        0.0185
     19 C         140.8441  144.1383  163.1687 C.ar    1  UNL1        0.0794
     20 C         139.6939  144.1216  164.1315 C.ar    1  UNL1        0.0379
     21 C         138.5181  144.7672  163.4601 C.ar    1  UNL1        0.1216
     22 N         138.9417  145.1828  162.0824 N.ar    1  UNL1       -0.1676
     23 N         140.3792  144.7941  161.9024 N.ar    1  UNL1       -0.2488
     24 C         141.2065  145.0213  160.6720 C.3     1  UNL1        0.1537
     25 C         139.8659  143.5208  165.4951 C.ar    1  UNL1       -0.0008
@<TRIPOS>BOND
     1    10    11    1
     2    11    12   am
     3    12    13    2
     4    12     1    1
     5     1     2    2
     6     2     3    1
     7     3     4    2
     8     4     5    1
     9     5     6    2
    10     6     7    1
    11     7    15    1
    12    15    16    1
    13    16    17   ar
    14    17    18   ar
    15    18    19   ar
    16    19    20   ar
    17    20    21   ar
    18    21    22   ar
    19    22    23   ar
    20    23    24    1
    21    20    25   ar
    22     7     8    2
    23     8     9    1
    24     9     1    1
    25     8     4    1
    26    25    16   ar
    27    23    19   ar
    28    11    14    1
@<TRIPOS>MOLECULE
*****
 25 28 0 0 0
SMALL
GASTEIGER

@<TRIPOS>ATOM
      1 C         142.2765  142.2359  166.0876 C.2     1  UNL1        0.0356
      2 C         143.2374  142.4931  167.2103 C.2     1  UNL1        0.0021
      3 C         142.9756  141.9139  168.5690 C.2     1  UNL1        0.0205
      4 C         141.7530  141.0776  168.8049 C.2     1  UNL1        0.1004
      5 N         141.2348  140.3798  170.0275 N.2     1  UNL1       -0.1486
      6 N         139.9537  139.6914  169.6603 N.2     1  UNL1       -0.1523
      7 C         139.6800  139.9637  168.2108 C.2     1  UNL1        0.0827
      8 C         140.7921  140.8204  167.6822 C.2     1  UNL1        0.0174
      9 C         141.0539  141.3996  166.3235 C.3     1  UNL1        0.0601
     10 C         142.1052  144.6539  162.9453 C.3     1  UNL1        0.1109
     11 N         141.8435  144.0747  164.3040 N.am    1  UNL1       -0.2994
     12 C         142.5382  142.8151  164.7289 C.2     1  UNL1        0.2422
     13 O         143.4948  142.1347  163.7951 O.2     1  UNL1       -0.2705
     14 H         141.2157  144.5214  164.9169 H       1  UNL1        0.1498
     15 C         138.5014  139.4666  167.4275 C.3     1  UNL1        0.0736
     16 C         138.5934  139.3355  165.9361 C.ar    1  UNL1       -0.0160
     17 C         139.2898  138.1540  165.3287 C.ar    1  UNL1       -0.0024
     18 C         139.3818  138.0229  163.8372 C.ar    1  UNL1        0.0185
     19 C         138.7774  139.0733  162.9532 C.ar    1  UNL1        0.0794
     20 C         138.0810  140.2548  163.5607 C.ar    1  UNL1        0.0379
     21 C         137.5845  141.1247  162.4442 C.ar    1  UNL1        0.1216
     22 N         137.9740  140.4808  161.1466 N.ar    1  UNL1       -0.1676
     23 N         138.7113  139.2130  161.4612 N.ar    1  UNL1       -0.2488
     24 C         139.2822  138.2533  160.4597 C.3     1  UNL1        0.1537
     25 C         137.9890  140.3859  165.0522 C.ar    1  UNL1       -0.0008
@<TRIPOS>BOND
     1    10    11    1
     2    11    12   am
     3    12    13    2
     4    12     1    1
     5     1     2    2
     6     2     3    1
     7     3     4    2
     8     4     5    1
     9     5     6    2
    10     6     7    1
    11     7    15    1
    12    15    16    1
    13    16    17   ar
    14    17    18   ar
    15    18    19   ar
    16    19    20   ar
    17    20    21   ar
    18    21    22   ar
    19    22    23   ar
    20    23    24    1
    21    20    25   ar
    22     7     8    2
    23     8     9    1
    24     9     1    1
    25     8     4    1
    26    25    16   ar
    27    23    19   ar
    28    11    14    1
@<TRIPOS>MOLECULE
*****
 25 28 0 0 0
SMALL
GASTEIGER

@<TRIPOS>ATOM
      1 C         142.1189  143.2894  162.4021 C.2     1  UNL1        0.0356
      2 C         141.5470  144.4755  161.6837 C.2     1  UNL1        0.0021
      3 C         140.0736  144.5489  161.4119 C.2     1  UNL1        0.0205
      4 C         139.1722  143.4363  161.8586 C.2     1  UNL1        0.1004
      5 N         137.6915  143.2322  161.7326 N.2     1  UNL1       -0.1486
      6 N         137.3483  141.9200  162.3731 N.2     1  UNL1       -0.1523
      7 C         138.6169  141.3131  162.8950 C.2     1  UNL1        0.0827
      8 C         139.7441  142.2503  162.5770 C.2     1  UNL1        0.0174
      9 C         141.2175  142.1768  162.8488 C.3     1  UNL1        0.0601
     10 C         145.6596  141.8941  163.5275 C.3     1  UNL1        0.1109
     11 N         144.1863  141.9675  163.2557 N.am    1  UNL1       -0.2994
     12 C         143.5922  143.2160  162.6739 C.2     1  UNL1        0.2422
     13 O         144.4716  144.3910  162.3639 O.2     1  UNL1       -0.2705
     14 H         143.6091  141.1963  163.4592 H       1  UNL1        0.1498
     15 C         138.7372  139.9997  163.6095 C.3     1  UNL1        0.0736
     16 C         139.6318  139.8766  164.8071 C.ar    1  UNL1       -0.0160
     17 C         139.2462  140.5292  166.1016 C.ar    1  UNL1       -0.0024
     18 C         140.1409  140.4061  167.2992 C.ar    1  UNL1        0.0185
     19 C         141.4212  139.6304  167.2025 C.ar    1  UNL1        0.0794
     20 C         141.8067  138.9778  165.9081 C.ar    1  UNL1        0.0379
     21 C         143.1201  138.2827  166.1126 C.ar    1  UNL1        0.1216
     22 N         143.5462  138.5057  167.5334 N.ar    1  UNL1       -0.1676
     23 N         142.4963  139.3386  168.2071 N.ar    1  UNL1       -0.2488
     24 C         142.5176  139.7989  169.6345 C.3     1  UNL1        0.1537
     25 C         140.9121  139.1009  164.7105 C.ar    1  UNL1       -0.0008
@<TRIPOS>BOND
     1    10    11    1
     2    11    12   am
     3    12    13    2
     4    12     1    1
     5     1     2    2
     6     2     3    1
     7     3     4    2
     8     4     5    1
     9     5     6    2
    10     6     7    1
    11     7    15    1
    12    15    16    1
    13    16    17   ar
    14    17    18   ar
    15    18    19   ar
    16    19    20   ar
    17    20    21   ar
    18    21    22   ar
    19    22    23   ar
    20    23    24    1
    21    20    25   ar
    22     7     8    2
    23     8     9    1
    24     9     1    1
    25     8     4    1
    26    25    16   ar
    27    23    19   ar
    28    11    14    1
@<TRIPOS>MOLECULE
*****
 25 28 0 0 0
SMALL
GASTEIGER

@<TRIPOS>ATOM
      1 C         140.9856  142.4795  166.6063 C.2     1  UNL1        0.0356
      2 C         140.4160  142.8521  167.9430 C.2     1  UNL1        0.0021
      3 C         140.6897  141.9919  169.1410 C.2     1  UNL1        0.0205
      4 C         141.5328  140.7591  169.0024 C.2     1  UNL1        0.1004
      5 N         141.9701  139.7250  169.9970 N.2     1  UNL1       -0.1486
      6 N         142.8099  138.7133  169.2751 N.2     1  UNL1       -0.1523
      7 C         142.8917  139.1221  167.8342 C.2     1  UNL1        0.0827
      8 C         142.1024  140.3865  167.6657 C.2     1  UNL1        0.0174
      9 C         141.8287  141.2467  166.4677 C.3     1  UNL1        0.0601
     10 C         139.0492  144.7017  163.9490 C.3     1  UNL1        0.1109
     11 N         139.3228  143.8416  165.1470 N.am    1  UNL1       -0.2994
     12 C         140.7119  143.3396  165.4083 C.2     1  UNL1        0.2422
     13 O         141.8274  143.6979  164.4717 O.2     1  UNL1       -0.2705
     14 H         138.5907  143.6064  165.7617 H       1  UNL1        0.1498
     15 C         143.6326  138.3943  166.7519 C.3     1  UNL1        0.0736
     16 C         143.1759  138.5024  165.3272 C.ar    1  UNL1       -0.0160
     17 C         141.8631  137.9064  164.9132 C.ar    1  UNL1       -0.0024
     18 C         141.4065  138.0144  163.4885 C.ar    1  UNL1        0.0185
     19 C         142.2626  138.7185  162.4778 C.ar    1  UNL1        0.0794
     20 C         143.5754  139.3145  162.8919 C.ar    1  UNL1        0.0379
     21 C         144.2004  139.9446  161.6826 C.ar    1  UNL1        0.1216
     22 N         143.2738  139.7381  160.5212 N.ar    1  UNL1       -0.1676
     23 N         142.0762  138.9803  161.0126 N.ar    1  UNL1       -0.2488
     24 C         140.8990  138.5584  160.1843 C.3     1  UNL1        0.1537
     25 C         144.0320  139.2064  164.3166 C.ar    1  UNL1       -0.0008
@<TRIPOS>BOND
     1    10    11    1
     2    11    12   am
     3    12    13    2
     4    12     1    1
     5     1     2    2
     6     2     3    1
     7     3     4    2
     8     4     5    1
     9     5     6    2
    10     6     7    1
    11     7    15    1
    12    15    16    1
    13    16    17   ar
    14    17    18   ar
    15    18    19   ar
    16    19    20   ar
    17    20    21   ar
    18    21    22   ar
    19    22    23   ar
    20    23    24    1
    21    20    25   ar
    22     7     8    2
    23     8     9    1
    24     9     1    1
    25     8     4    1
    26    25    16   ar
    27    23    19   ar
    28    11    14    1
@<TRIPOS>MOLECULE
*****
 25 28 0 0 0
SMALL
GASTEIGER

@<TRIPOS>ATOM
      1 C         141.4196  143.4077  163.3023 C.2     1  UNL1        0.0356
      2 C         140.5324  144.2847  162.4694 C.2     1  UNL1        0.0021
      3 C         139.1480  143.8295  162.1141 C.2     1  UNL1        0.0205
      4 C         138.6508  142.4974  162.5917 C.2     1  UNL1        0.1004
      5 N         137.3435  141.7870  162.4015 N.2     1  UNL1       -0.1486
      6 N         137.4227  140.4709  163.1168 N.2     1  UNL1       -0.1523
      7 C         138.7790  140.3679  163.7491 C.2     1  UNL1        0.0827
      8 C         139.5380  141.6204  163.4245 C.2     1  UNL1        0.0174
      9 C         140.9224  142.0755  163.7798 C.3     1  UNL1        0.0601
     10 C         144.8042  143.9003  165.3153 C.3     1  UNL1        0.1109
     11 N         143.4198  143.4452  164.9600 N.am    1  UNL1       -0.2994
     12 C         142.8041  143.8629  163.6575 C.2     1  UNL1        0.2422
     13 O         143.5728  144.7357  162.7104 O.2     1  UNL1       -0.2705
     14 H         142.9152  142.8723  165.5817 H       1  UNL1        0.1498
     15 C         139.2872  139.2149  164.5630 C.3     1  UNL1        0.0736
     16 C         139.8907  139.4592  165.9144 C.ar    1  UNL1       -0.0160
     17 C         141.3770  139.3748  166.0983 C.ar    1  UNL1       -0.0024
     18 C         141.9805  139.6190  167.4496 C.ar    1  UNL1        0.0185
     19 C         141.0978  139.9476  168.6171 C.ar    1  UNL1        0.0794
     20 C         139.6115  140.0320  168.4331 C.ar    1  UNL1        0.0379
     21 C         138.9989  140.3726  169.7592 C.ar    1  UNL1        0.1216
     22 N         140.1066  140.4988  170.7628 N.ar    1  UNL1       -0.1676
     23 N         141.4038  140.2361  170.0569 N.ar    1  UNL1       -0.2488
     24 C         142.7675  140.2581  170.6812 C.3     1  UNL1        0.1537
     25 C         139.0080  139.7878  167.0818 C.ar    1  UNL1       -0.0008
@<TRIPOS>BOND
     1    10    11    1
     2    11    12   am
     3    12    13    2
     4    12     1    1
     5     1     2    2
     6     2     3    1
     7     3     4    2
     8     4     5    1
     9     5     6    2
    10     6     7    1
    11     7    15    1
    12    15    16    1
    13    16    17   ar
    14    17    18   ar
    15    18    19   ar
    16    19    20   ar
    17    20    21   ar
    18    21    22   ar
    19    22    23   ar
    20    23    24    1
    21    20    25   ar
    22     7     8    2
    23     8     9    1
    24     9     1    1
    25     8     4    1
    26    25    16   ar
    27    23    19   ar
    28    11    14    1
