@<TRIPOS>MOLECULE
*****
 25 28 0 0 0
SMALL
GASTEIGER

@<TRIPOS>ATOM
      1 C         139.1842  144.2239  156.5645 C.ar    1  UNL1        0.1547
      2 C         139.1651  143.1786  157.6402 C.ar    1  UNL1        0.0384
      3 C         139.7735  143.4701  158.9801 C.ar    1  UNL1        0.0034
      4 C         140.4009  144.8067  159.2441 C.ar    1  UNL1        0.0017
      5 C         140.4200  145.8519  158.1684 C.ar    1  UNL1        0.0206
      6 C         139.8117  145.5605  156.8286 C.ar    1  UNL1        0.0994
      7 N         139.8308  146.6058  155.7529 N.ar    1  UNL1       -0.2839
      8 C         139.0106  147.8614  155.7290 C.ar    1  UNL1        0.1826
      9 N         139.3463  148.6106  154.4736 N.ar    1  UNL1       -0.2280
     10 C         140.3740  147.8179  153.7216 C.ar    1  UNL1        0.0786
     11 C         140.9936  148.1975  152.4093 C.3     1  UNL1        0.0538
     12 C         140.6735  146.5788  154.5122 C.ar    1  UNL1        0.0963
     13 C         137.1240  144.2208  154.9816 C.3     1  UNL1        0.2525
     14 O         138.5759  143.9325  155.2248 O.3     1  UNL1       -0.4700
     15 C         139.7544  142.4249  160.0558 C.2     1  UNL1        0.0080
     16 C         138.6207  142.3790  161.0369 C.2     1  UNL1        0.0958
     17 C         138.6016  141.3337  162.1126 C.2     1  UNL1        0.3755
     18 N         138.2290  141.5534  163.5488 N.2     1  UNL1       -0.0308
     19 C         138.3489  140.2408  164.2648 C.2     1  UNL1        0.2321
     20 C         138.1090  139.8511  165.6933 C.2     1  UNL1        0.0498
     21 C         138.3158  138.4304  166.1280 C.2     1  UNL1       -0.0002
     22 C         138.7625  137.3995  165.1342 C.2     1  UNL1       -0.0172
     23 C         139.0023  137.7892  163.7057 C.3     1  UNL1        0.1037
     24 C         138.7955  139.2098  163.2710 C.2     1  UNL1        0.2178
     25 N         138.9517  139.8853  161.9409 N.2     1  UNL1       -0.0347
@<TRIPOS>BOND
     1    13    14    1
     2    14     1    1
     3     1     2   ar
     4     2     3   ar
     5     3    15    1
     6    15    16    2
     7    16    17    1
     8    17    18    2
     9    18    19    1
    10    19    20    2
    11    20    21    1
    12    21    22    2
    13    22    23    1
    14    23    24    1
    15    24    25    2
    16     3     4   ar
    17     4     5   ar
    18     5     6   ar
    19     6     7    1
    20     7     8   ar
    21     8     9   ar
    22     9    10   ar
    23    10    11    1
    24    10    12   ar
    25     6     1   ar
    26    12     7   ar
    27    25    17    1
    28    24    19    1
@<TRIPOS>MOLECULE
*****
 25 28 0 0 0
SMALL
GASTEIGER

@<TRIPOS>ATOM
      1 C         137.9141  140.9432  163.8906 C.ar    1  UNL1        0.1547
      2 C         137.6410  140.9198  162.4158 C.ar    1  UNL1        0.0384
      3 C         137.8909  139.6688  161.6266 C.ar    1  UNL1        0.0034
      4 C         138.4138  138.4414  162.3122 C.ar    1  UNL1        0.0017
      5 C         138.6868  138.4649  163.7869 C.ar    1  UNL1        0.0206
      6 C         138.4370  139.7158  164.5761 C.ar    1  UNL1        0.0994
      7 N         138.7100  139.7392  166.0509 N.ar    1  UNL1       -0.2839
      8 C         137.9415  138.9943  167.1018 C.ar    1  UNL1        0.1826
      9 N         138.5561  139.3064  168.4341 N.ar    1  UNL1       -0.2280
     10 C         139.7044  140.2443  168.2065 C.ar    1  UNL1        0.0786
     11 C         140.6002  140.8146  169.2659 C.3     1  UNL1        0.0538
     12 C         139.7996  140.5118  166.7336 C.ar    1  UNL1        0.0963
     13 C         138.6151  143.3495  164.5749 C.3     1  UNL1        0.2525
     14 O         137.6642  142.1941  164.6797 O.3     1  UNL1       -0.4700
     15 C         137.6178  139.6453  160.1519 C.2     1  UNL1        0.0080
     16 C         138.1979  140.7067  159.2647 C.2     1  UNL1        0.0958
     17 C         137.9248  140.6832  157.7900 C.2     1  UNL1        0.3755
     18 N         136.5722  140.6207  157.1446 N.2     1  UNL1       -0.0308
     19 C         136.7679  140.6170  155.6574 C.2     1  UNL1        0.2321
     20 C         135.7946  140.5665  154.5172 C.2     1  UNL1        0.0498
     21 C         136.2950  140.5763  153.1032 C.2     1  UNL1       -0.0002
     22 C         137.7685  140.6366  152.8294 C.2     1  UNL1       -0.0172
     23 C         138.7418  140.6870  153.9696 C.3     1  UNL1        0.1037
     24 C         138.2414  140.6772  155.3836 C.2     1  UNL1        0.2178
     25 N         138.9565  140.7182  156.7016 N.2     1  UNL1       -0.0347
@<TRIPOS>BOND
     1    13    14    1
     2    14     1    1
     3     1     2   ar
     4     2     3   ar
     5     3    15    1
     6    15    16    2
     7    16    17    1
     8    17    18    2
     9    18    19    1
    10    19    20    2
    11    20    21    1
    12    21    22    2
    13    22    23    1
    14    23    24    1
    15    24    25    2
    16     3     4   ar
    17     4     5   ar
    18     5     6   ar
    19     6     7    1
    20     7     8   ar
    21     8     9   ar
    22     9    10   ar
    23    10    11    1
    24    10    12   ar
    25     6     1   ar
    26    12     7   ar
    27    25    17    1
    28    24    19    1
@<TRIPOS>MOLECULE
*****
 25 28 0 0 0
SMALL
GASTEIGER

@<TRIPOS>ATOM
      1 C         142.8598  141.8196  164.8092 C.ar    1  UNL1        0.1547
      2 C         142.5074  142.3382  163.4465 C.ar    1  UNL1        0.0384
      3 C         141.2382  143.1115  163.2434 C.ar    1  UNL1        0.0034
      4 C         140.3214  143.3661  164.4030 C.ar    1  UNL1        0.0017
      5 C         140.6738  142.8475  165.7657 C.ar    1  UNL1        0.0206
      6 C         141.9429  142.0742  165.9688 C.ar    1  UNL1        0.0994
      7 N         142.2953  141.5556  167.3314 N.ar    1  UNL1       -0.2839
      8 C         142.9526  142.3378  168.4297 C.ar    1  UNL1        0.1826
      9 N         143.1158  141.4294  169.6121 N.ar    1  UNL1       -0.2280
     10 C         142.5594  140.0857  169.2446 C.ar    1  UNL1        0.0786
     11 C         142.5174  138.8763  170.1310 C.3     1  UNL1        0.0538
     12 C         142.0523  140.1637  167.8351 C.ar    1  UNL1        0.0963
     13 C         144.9084  140.5593  163.8268 C.3     1  UNL1        0.2525
     14 O         144.1290  141.0464  165.0123 O.3     1  UNL1       -0.4700
     15 C         140.8858  143.6301  161.8808 C.2     1  UNL1        0.0080
     16 C         141.9376  144.2775  161.0296 C.2     1  UNL1        0.0958
     17 C         141.5852  144.7961  159.6669 C.2     1  UNL1        0.3755
     18 N         140.3640  145.5931  159.3155 N.2     1  UNL1       -0.0308
     19 C         140.4162  145.8984  157.8478 C.2     1  UNL1        0.2321
     20 C         139.4843  146.6517  156.9456 C.2     1  UNL1        0.0498
     21 C         139.8059  146.7966  155.4877 C.2     1  UNL1       -0.0002
     22 C         141.0593  146.1883  154.9320 C.2     1  UNL1       -0.0172
     23 C         141.9912  145.4350  155.8342 C.3     1  UNL1        0.1037
     24 C         141.6697  145.2901  157.2921 C.2     1  UNL1        0.2178
     25 N         142.3921  144.6088  158.4164 N.2     1  UNL1       -0.0347
@<TRIPOS>BOND
     1    13    14    1
     2    14     1    1
     3     1     2   ar
     4     2     3   ar
     5     3    15    1
     6    15    16    2
     7    16    17    1
     8    17    18    2
     9    18    19    1
    10    19    20    2
    11    20    21    1
    12    21    22    2
    13    22    23    1
    14    23    24    1
    15    24    25    2
    16     3     4   ar
    17     4     5   ar
    18     5     6   ar
    19     6     7    1
    20     7     8   ar
    21     8     9   ar
    22     9    10   ar
    23    10    11    1
    24    10    12   ar
    25     6     1   ar
    26    12     7   ar
    27    25    17    1
    28    24    19    1
@<TRIPOS>MOLECULE
*****
 25 28 0 0 0
SMALL
GASTEIGER

@<TRIPOS>ATOM
      1 C         138.8294  138.6621  163.8640 C.ar    1  UNL1        0.1547
      2 C         138.5154  138.6357  162.3974 C.ar    1  UNL1        0.0384
      3 C         137.8474  139.8137  161.7522 C.ar    1  UNL1        0.0034
      4 C         137.4933  141.0179  162.5734 C.ar    1  UNL1        0.0017
      5 C         137.8073  141.0442  164.0400 C.ar    1  UNL1        0.0206
      6 C         138.4752  139.8663  164.6853 C.ar    1  UNL1        0.0994
      7 N         138.7892  139.8927  166.1518 N.ar    1  UNL1       -0.2839
      8 C         138.0803  139.1130  167.2193 C.ar    1  UNL1        0.1826
      9 N         138.7201  139.4417  168.5356 N.ar    1  UNL1       -0.2280
     10 C         139.8244  140.4246  168.2816 C.ar    1  UNL1        0.0786
     11 C         140.7274  141.0237  169.3188 C.3     1  UNL1        0.0538
     12 C         139.8671  140.7034  166.8083 C.ar    1  UNL1        0.0963
     13 C         140.9923  137.3634  164.4845 C.3     1  UNL1        0.2525
     14 O         139.4974  137.4842  164.5092 O.3     1  UNL1       -0.4700
     15 C         137.5335  139.7874  160.2856 C.2     1  UNL1        0.0080
     16 C         138.5046  140.3670  159.3002 C.2     1  UNL1        0.0958
     17 C         138.1906  140.3407  157.8337 C.2     1  UNL1        0.3755
     18 N         139.1342  139.9443  156.7370 N.2     1  UNL1       -0.0308
     19 C         138.4048  140.0648  155.4319 C.2     1  UNL1        0.2321
     20 C         138.8301  139.8066  154.0168 C.2     1  UNL1        0.0498
     21 C         137.8611  140.0192  152.8918 C.2     1  UNL1       -0.0002
     22 C         136.4667  140.4899  153.1818 C.2     1  UNL1       -0.0172
     23 C         136.0414  140.7481  154.5969 C.3     1  UNL1        0.1037
     24 C         137.0104  140.5355  155.7219 C.2     1  UNL1        0.2178
     25 N         136.8781  140.7061  157.2063 N.2     1  UNL1       -0.0347
@<TRIPOS>BOND
     1    13    14    1
     2    14     1    1
     3     1     2   ar
     4     2     3   ar
     5     3    15    1
     6    15    16    2
     7    16    17    1
     8    17    18    2
     9    18    19    1
    10    19    20    2
    11    20    21    1
    12    21    22    2
    13    22    23    1
    14    23    24    1
    15    24    25    2
    16     3     4   ar
    17     4     5   ar
    18     5     6   ar
    19     6     7    1
    20     7     8   ar
    21     8     9   ar
    22     9    10   ar
    23    10    11    1
    24    10    12   ar
    25     6     1   ar
    26    12     7   ar
    27    25    17    1
    28    24    19    1
@<TRIPOS>MOLECULE
*****
 25 28 0 0 0
SMALL
GASTEIGER

@<TRIPOS>ATOM
      1 C         139.3893  140.1896  164.5844 C.ar    1  UNL1        0.1547
      2 C         139.5677  139.5509  163.2389 C.ar    1  UNL1        0.0384
      3 C         140.8023  138.7506  162.9463 C.ar    1  UNL1        0.0034
      4 C         141.8584  138.5891  163.9991 C.ar    1  UNL1        0.0017
      5 C         141.6800  139.2278  165.3446 C.ar    1  UNL1        0.0206
      6 C         140.4455  140.0280  165.6372 C.ar    1  UNL1        0.0994
      7 N         140.2671  140.6667  166.9827 N.ar    1  UNL1       -0.2839
      8 C         139.6565  140.0212  168.1911 C.ar    1  UNL1        0.1826
      9 N         139.6800  141.0186  169.3113 N.ar    1  UNL1       -0.2280
     10 C         140.3052  142.2806  168.7951 C.ar    1  UNL1        0.0786
     11 C         140.5284  143.5391  169.5801 C.3     1  UNL1        0.0538
     12 C         140.6681  142.0632  167.3559 C.ar    1  UNL1        0.0963
     13 C         138.0517  142.4096  164.4040 C.3     1  UNL1        0.2525
     14 O         138.1549  140.9898  164.8770 O.3     1  UNL1       -0.4700
     15 C         140.9807  138.1120  161.6009 C.2     1  UNL1        0.0080
     16 C         141.4538  138.9326  160.4379 C.2     1  UNL1        0.0958
     17 C         141.6322  138.2940  159.0924 C.2     1  UNL1        0.3755
     18 N         142.9177  137.7607  158.5330 N.2     1  UNL1       -0.0308
     19 C         142.6364  137.2135  157.1650 C.2     1  UNL1        0.2321
     20 C         143.5206  136.5629  156.1429 C.2     1  UNL1        0.0498
     21 C         142.9453  136.1073  154.8346 C.2     1  UNL1       -0.0002
     22 C         141.4859  136.3024  154.5485 C.2     1  UNL1       -0.0172
     23 C         140.6017  136.9531  155.5706 C.3     1  UNL1        0.1037
     24 C         141.1769  137.4086  156.8789 C.2     1  UNL1        0.2178
     25 N         140.5563  138.0764  158.0701 N.2     1  UNL1       -0.0347
@<TRIPOS>BOND
     1    13    14    1
     2    14     1    1
     3     1     2   ar
     4     2     3   ar
     5     3    15    1
     6    15    16    2
     7    16    17    1
     8    17    18    2
     9    18    19    1
    10    19    20    2
    11    20    21    1
    12    21    22    2
    13    22    23    1
    14    23    24    1
    15    24    25    2
    16     3     4   ar
    17     4     5   ar
    18     5     6   ar
    19     6     7    1
    20     7     8   ar
    21     8     9   ar
    22     9    10   ar
    23    10    11    1
    24    10    12   ar
    25     6     1   ar
    26    12     7   ar
    27    25    17    1
    28    24    19    1
@<TRIPOS>MOLECULE
*****
 25 28 0 0 0
SMALL
GASTEIGER

@<TRIPOS>ATOM
      1 C         141.0795  139.1958  165.6176 C.ar    1  UNL1        0.1547
      2 C         140.8990  138.6686  164.2250 C.ar    1  UNL1        0.0384
      3 C         142.0937  138.4537  163.3437 C.ar    1  UNL1        0.0034
      4 C         143.4688  138.7660  163.8550 C.ar    1  UNL1        0.0017
      5 C         143.6493  139.2933  165.2476 C.ar    1  UNL1        0.0206
      6 C         142.4547  139.5082  166.1289 C.ar    1  UNL1        0.0994
      7 N         142.6352  140.0355  167.5215 N.ar    1  UNL1       -0.2839
      8 C         142.7503  139.2102  168.7688 C.ar    1  UNL1        0.1826
      9 N         142.9186  140.1453  169.9295 N.ar    1  UNL1       -0.2280
     10 C         142.9074  141.5486  169.3997 C.ar    1  UNL1        0.0786
     11 C         143.0469  142.8000  170.2148 C.3     1  UNL1        0.0538
     12 C         142.7323  141.4808  167.9114 C.ar    1  UNL1        0.0963
     13 C         138.5492  138.8567  166.1001 C.3     1  UNL1        0.2525
     14 O         139.8849  139.4107  166.4989 O.3     1  UNL1       -0.4700
     15 C         141.9131  137.9264  161.9511 C.2     1  UNL1        0.0080
     16 C         142.0826  138.8415  160.7748 C.2     1  UNL1        0.0958
     17 C         141.9020  138.3142  159.3821 C.2     1  UNL1        0.3755
     18 N         142.9622  137.6700  158.5390 N.2     1  UNL1       -0.0308
     19 C         142.3451  137.2962  157.2239 C.2     1  UNL1        0.2321
     20 C         142.9096  136.6330  156.0027 C.2     1  UNL1        0.0498
     21 C         142.0324  136.3830  154.8119 C.2     1  UNL1       -0.0002
     22 C         140.5908  136.7962  154.8423 C.2     1  UNL1       -0.0172
     23 C         140.0263  137.4594  156.0635 C.3     1  UNL1        0.1037
     24 C         140.9034  137.7094  157.2543 C.2     1  UNL1        0.2178
     25 N         140.6297  138.3386  158.5882 N.2     1  UNL1       -0.0347
@<TRIPOS>BOND
     1    13    14    1
     2    14     1    1
     3     1     2   ar
     4     2     3   ar
     5     3    15    1
     6    15    16    2
     7    16    17    1
     8    17    18    2
     9    18    19    1
    10    19    20    2
    11    20    21    1
    12    21    22    2
    13    22    23    1
    14    23    24    1
    15    24    25    2
    16     3     4   ar
    17     4     5   ar
    18     5     6   ar
    19     6     7    1
    20     7     8   ar
    21     8     9   ar
    22     9    10   ar
    23    10    11    1
    24    10    12   ar
    25     6     1   ar
    26    12     7   ar
    27    25    17    1
    28    24    19    1
@<TRIPOS>MOLECULE
*****
 25 28 0 0 0
SMALL
GASTEIGER

@<TRIPOS>ATOM
      1 C         142.2470  144.1241  160.3620 C.ar    1  UNL1        0.1547
      2 C         142.3247  143.8728  161.8388 C.ar    1  UNL1        0.0384
      3 C         141.3216  144.5011  162.7603 C.ar    1  UNL1        0.0034
      4 C         140.2409  145.3806  162.2050 C.ar    1  UNL1        0.0017
      5 C         140.1631  145.6319  160.7283 C.ar    1  UNL1        0.0206
      6 C         141.1662  145.0037  159.8068 C.ar    1  UNL1        0.0994
      7 N         141.0885  145.2551  158.3300 N.ar    1  UNL1       -0.2839
      8 C         142.0984  145.9997  157.5080 C.ar    1  UNL1        0.1826
      9 N         141.6213  146.0107  156.0860 N.ar    1  UNL1       -0.2280
     10 C         140.3165  145.2729  156.0290 C.ar    1  UNL1        0.0786
     11 C         139.4867  145.0426  154.8009 C.3     1  UNL1        0.0538
     12 C         139.9872  144.8058  157.4159 C.ar    1  UNL1        0.0963
     13 C         144.2307  142.4925  159.9711 C.3     1  UNL1        0.2525
     14 O         143.2501  143.4959  159.4405 O.3     1  UNL1       -0.4700
     15 C         141.3993  144.2497  164.2370 C.2     1  UNL1        0.0080
     16 C         141.2288  142.8585  164.7710 C.2     1  UNL1        0.0958
     17 C         141.3065  142.6071  166.2478 C.2     1  UNL1        0.3755
     18 N         142.4623  141.9893  166.9774 N.2     1  UNL1       -0.0308
     19 C         142.1122  141.9298  168.4348 C.2     1  UNL1        0.2321
     20 C         142.8656  141.4217  169.6281 C.2     1  UNL1        0.0498
     21 C         142.2468  141.4945  170.9925 C.2     1  UNL1       -0.0002
     22 C         140.8745  142.0756  171.1636 C.2     1  UNL1       -0.0172
     23 C         140.1211  142.5837  169.9703 C.3     1  UNL1        0.1037
     24 C         140.7399  142.5109  168.6058 C.2     1  UNL1        0.2178
     25 N         140.2420  142.9294  167.2542 N.2     1  UNL1       -0.0347
@<TRIPOS>BOND
     1    13    14    1
     2    14     1    1
     3     1     2   ar
     4     2     3   ar
     5     3    15    1
     6    15    16    2
     7    16    17    1
     8    17    18    2
     9    18    19    1
    10    19    20    2
    11    20    21    1
    12    21    22    2
    13    22    23    1
    14    23    24    1
    15    24    25    2
    16     3     4   ar
    17     4     5   ar
    18     5     6   ar
    19     6     7    1
    20     7     8   ar
    21     8     9   ar
    22     9    10   ar
    23    10    11    1
    24    10    12   ar
    25     6     1   ar
    26    12     7   ar
    27    25    17    1
    28    24    19    1
@<TRIPOS>MOLECULE
*****
 25 28 0 0 0
SMALL
GASTEIGER

@<TRIPOS>ATOM
      1 C         138.3837  139.9972  163.9877 C.ar    1  UNL1        0.1547
      2 C         138.3807  139.7013  162.5171 C.ar    1  UNL1        0.0384
      3 C         139.0117  138.4406  162.0045 C.ar    1  UNL1        0.0034
      4 C         139.6455  137.4759  162.9624 C.ar    1  UNL1        0.0017
      5 C         139.6485  137.7718  164.4329 C.ar    1  UNL1        0.0206
      6 C         139.0176  139.0324  164.9455 C.ar    1  UNL1        0.0994
      7 N         139.0205  139.3283  166.4161 N.ar    1  UNL1       -0.2839
      8 C         137.9501  138.9453  167.3946 C.ar    1  UNL1        0.1826
      9 N         138.3624  139.4394  168.7496 N.ar    1  UNL1       -0.2280
     10 C         139.6876  140.1278  168.6084 C.ar    1  UNL1        0.0786
     11 C         140.4689  140.7718  169.7151 C.3     1  UNL1        0.0538
     12 C         140.0944  140.0592  167.1662 C.ar    1  UNL1        0.0963
     13 C         138.5670  142.5127  164.6109 C.3     1  UNL1        0.2525
     14 O         137.7528  141.2578  164.5003 O.3     1  UNL1       -0.4700
     15 C         139.0088  138.1447  160.5340 C.2     1  UNL1        0.0080
     16 C         140.0143  138.8009  159.6349 C.2     1  UNL1        0.0958
     17 C         140.0113  138.5050  158.1644 C.2     1  UNL1        0.3755
     18 N         141.0507  137.7194  157.4210 N.2     1  UNL1       -0.0308
     19 C         140.6502  137.6716  155.9762 C.2     1  UNL1        0.2321
     20 C         141.2911  137.0374  154.7775 C.2     1  UNL1        0.0498
     21 C         140.6452  137.1592  153.4293 C.2     1  UNL1       -0.0002
     22 C         139.3583  137.9152  153.2797 C.2     1  UNL1       -0.0172
     23 C         138.7174  138.5495  154.4784 C.3     1  UNL1        0.1037
     24 C         139.3634  138.4277  155.8267 C.2     1  UNL1        0.2178
     25 N         138.9685  138.9427  157.1790 N.2     1  UNL1       -0.0347
@<TRIPOS>BOND
     1    13    14    1
     2    14     1    1
     3     1     2   ar
     4     2     3   ar
     5     3    15    1
     6    15    16    2
     7    16    17    1
     8    17    18    2
     9    18    19    1
    10    19    20    2
    11    20    21    1
    12    21    22    2
    13    22    23    1
    14    23    24    1
    15    24    25    2
    16     3     4   ar
    17     4     5   ar
    18     5     6   ar
    19     6     7    1
    20     7     8   ar
    21     8     9   ar
    22     9    10   ar
    23    10    11    1
    24    10    12   ar
    25     6     1   ar
    26    12     7   ar
    27    25    17    1
    28    24    19    1
@<TRIPOS>MOLECULE
*****
 25 28 0 0 0
SMALL
GASTEIGER

@<TRIPOS>ATOM
      1 C         143.5621  139.7810  164.3635 C.ar    1  UNL1        0.1547
      2 C         143.4879  139.2297  162.9705 C.ar    1  UNL1        0.0384
      3 C         142.4334  138.2230  162.6175 C.ar    1  UNL1        0.0034
      4 C         141.4532  137.7676  163.6575 C.ar    1  UNL1        0.0017
      5 C         141.5274  138.3189  165.0506 C.ar    1  UNL1        0.0206
      6 C         142.5818  139.3256  165.4036 C.ar    1  UNL1        0.0994
      7 N         142.6560  139.8769  166.7966 N.ar    1  UNL1       -0.2839
      8 C         142.9328  139.0895  168.0429 C.ar    1  UNL1        0.1826
      9 N         142.9143  140.0384  169.2045 N.ar    1  UNL1       -0.2280
     10 C         142.6261  141.4123  168.6761 C.ar    1  UNL1        0.0786
     11 C         142.5168  142.6660  169.4924 C.3     1  UNL1        0.0538
     12 C         142.4665  141.3126  167.1879 C.ar    1  UNL1        0.0963
     13 C         145.5561  141.2912  163.6611 C.3     1  UNL1        0.2525
     14 O         144.6166  140.7877  164.7165 O.3     1  UNL1       -0.4700
     15 C         142.3592  137.6716  161.2245 C.2     1  UNL1        0.0080
     16 C         142.1909  138.6000  160.0584 C.2     1  UNL1        0.0958
     17 C         142.1167  138.0487  158.6654 C.2     1  UNL1        0.3755
     18 N         141.0625  138.3659  157.6466 N.2     1  UNL1       -0.0308
     19 C         141.3779  137.5966  156.3981 C.2     1  UNL1        0.2321
     20 C         140.6891  137.5155  155.0681 C.2     1  UNL1        0.0498
     21 C         141.2494  136.6417  153.9854 C.2     1  UNL1       -0.0002
     22 C         142.4986  135.8490  154.2326 C.2     1  UNL1       -0.0172
     23 C         143.1875  135.9301  155.5625 C.3     1  UNL1        0.1037
     24 C         142.6272  136.8039  156.6453 C.2     1  UNL1        0.2178
     25 N         143.0837  137.0833  158.0465 N.2     1  UNL1       -0.0347
@<TRIPOS>BOND
     1    13    14    1
     2    14     1    1
     3     1     2   ar
     4     2     3   ar
     5     3    15    1
     6    15    16    2
     7    16    17    1
     8    17    18    2
     9    18    19    1
    10    19    20    2
    11    20    21    1
    12    21    22    2
    13    22    23    1
    14    23    24    1
    15    24    25    2
    16     3     4   ar
    17     4     5   ar
    18     5     6   ar
    19     6     7    1
    20     7     8   ar
    21     8     9   ar
    22     9    10   ar
    23    10    11    1
    24    10    12   ar
    25     6     1   ar
    26    12     7   ar
    27    25    17    1
    28    24    19    1
