@<TRIPOS>MOLECULE
*****
 29 32 0 0 0
SMALL
GASTEIGER

@<TRIPOS>ATOM
      1 C         141.4108  138.1054  162.2013 C.ar    1  UNL1       -0.0206
      2 C         140.8239  137.3227  163.3384 C.ar    1  UNL1       -0.0011
      3 C         141.4361  137.4116  164.7049 C.ar    1  UNL1        0.0373
      4 C         142.6351  138.2833  164.9343 C.ar    1  UNL1        0.1477
      5 C         143.2219  139.0660  163.7972 C.ar    1  UNL1        0.0373
      6 C         142.6098  138.9771  162.4307 C.ar    1  UNL1       -0.0011
      7 C         140.7986  138.0165  160.8347 C.3     1  UNL1        0.0437
      8 C         139.5110  138.7281  160.5420 C.3     1  UNL1        0.0768
      9 C         138.2926  142.2840  163.0160 C.3     1  UNL1        0.0743
     10 C         139.3261  142.4378  161.9397 C.3     1  UNL1        0.0369
     11 C         139.7322  141.2525  161.1150 C.3     1  UNL1        0.0738
     12 N         139.1049  139.9134  161.3666 N.3     1  UNL1       -0.2723
     13 C         138.0715  139.7596  162.4429 C.3     1  UNL1        0.0738
     14 C         137.6653  140.9450  163.2676 C.3     1  UNL1        0.0369
     15 C         138.3241  145.0830  165.8293 C.3     1  UNL1        0.0946
     16 C         138.7302  143.8977  165.0046 C.2     1  UNL1        0.2229
     17 O         139.9800  143.1408  165.3438 O.2     1  UNL1       -0.2751
     18 N         137.8865  143.4693  163.8406 N.am    1  UNL1       -0.3059
     19 H         137.0662  143.9661  163.6180 H       1  UNL1        0.1494
     20 O         143.2473  138.3722  166.3008 O.3     1  UNL1       -0.4313
     21 C         142.6483  139.2807  167.3333 C.ar    1  UNL1        0.2628
     22 N         142.8854  139.2113  168.8128 N.ar    1  UNL1       -0.2050
     23 C         142.0907  140.3057  169.4615 C.ar    1  UNL1        0.0910
     24 C         141.9361  140.7195  170.8949 C.ar    1  UNL1        0.0197
     25 C         141.0534  141.8791  171.2497 C.ar    1  UNL1        0.0016
     26 C         140.3252  142.6250  170.1711 C.ar    1  UNL1        0.0006
     27 C         140.4798  142.2112  168.7376 C.ar    1  UNL1        0.0081
     28 C         141.3626  141.0516  168.3828 C.ar    1  UNL1        0.0515
     29 S         141.7072  140.4180  167.0675 S.2     1  UNL1       -0.0283
@<TRIPOS>BOND
     1    15    16    1
     2    16    17    2
     3    16    18   am
     4    18     9    1
     5     9    10    1
     6    10    11    1
     7    11    12    1
     8    12     8    1
     9     8     7    1
    10     7     1    1
    11     1     2   ar
    12     2     3   ar
    13     3     4   ar
    14     4    20    1
    15    20    21    1
    16    21    22   ar
    17    22    23   ar
    18    23    24   ar
    19    24    25   ar
    20    25    26   ar
    21    26    27   ar
    22    27    28   ar
    23    28    29   ar
    24     4     5   ar
    25     5     6   ar
    26    12    13    1
    27    13    14    1
    28    14     9    1
    29     6     1   ar
    30    29    21   ar
    31    28    23   ar
    32    18    19    1
@<TRIPOS>MOLECULE
*****
 29 32 0 0 0
SMALL
GASTEIGER

@<TRIPOS>ATOM
      1 C         143.8951  140.1121  161.9680 C.ar    1  UNL1       -0.0206
      2 C         144.8594  140.5162  163.0436 C.ar    1  UNL1       -0.0011
      3 C         144.7069  139.9689  164.4319 C.ar    1  UNL1        0.0373
      4 C         143.5902  139.0175  164.7445 C.ar    1  UNL1        0.1477
      5 C         142.6259  138.6134  163.6689 C.ar    1  UNL1        0.0373
      6 C         142.7784  139.1607  162.2807 C.ar    1  UNL1       -0.0011
      7 C         144.0476  140.6594  160.5797 C.3     1  UNL1        0.0437
      8 C         143.7385  142.1010  160.3037 C.3     1  UNL1        0.0768
      9 C         140.8953  144.3438  162.9750 C.3     1  UNL1        0.0743
     10 C         140.3659  143.3596  161.9745 C.3     1  UNL1        0.0369
     11 C         141.3136  142.6119  161.0841 C.3     1  UNL1        0.0738
     12 N         142.7908  142.8486  161.1941 N.3     1  UNL1       -0.2723
     13 C         143.3202  143.8329  162.1946 C.3     1  UNL1        0.0738
     14 C         142.3724  144.5805  163.0851 C.3     1  UNL1        0.0369
     15 C         138.3781  145.1513  165.9350 C.3     1  UNL1        0.0946
     16 C         139.3258  144.4037  165.0446 C.2     1  UNL1        0.2229
     17 O         139.6517  142.9682  165.3332 O.2     1  UNL1       -0.2751
     18 N         139.9476  145.0915  163.8654 N.am    1  UNL1       -0.3059
     19 H         139.7337  146.0336  163.6760 H       1  UNL1        0.1494
     20 O         143.4377  138.4702  166.1328 O.3     1  UNL1       -0.4313
     21 C         142.7484  139.2834  167.1880 C.ar    1  UNL1        0.2628
     22 N         142.9505  139.1591  168.6691 N.ar    1  UNL1       -0.2050
     23 C         142.0630  140.1626  169.3440 C.ar    1  UNL1        0.0910
     24 C         141.8415  140.4946  170.7899 C.ar    1  UNL1        0.0197
     25 C         140.8692  141.5711  171.1717 C.ar    1  UNL1        0.0016
     26 C         140.1185  142.3156  170.1077 C.ar    1  UNL1        0.0006
     27 C         140.3401  141.9836  168.6618 C.ar    1  UNL1        0.0081
     28 C         141.3124  140.9071  168.2799 C.ar    1  UNL1        0.0515
     29 S         141.7359  140.3638  166.9475 S.2     1  UNL1       -0.0283
@<TRIPOS>BOND
     1    15    16    1
     2    16    17    2
     3    16    18   am
     4    18     9    1
     5     9    10    1
     6    10    11    1
     7    11    12    1
     8    12     8    1
     9     8     7    1
    10     7     1    1
    11     1     2   ar
    12     2     3   ar
    13     3     4   ar
    14     4    20    1
    15    20    21    1
    16    21    22   ar
    17    22    23   ar
    18    23    24   ar
    19    24    25   ar
    20    25    26   ar
    21    26    27   ar
    22    27    28   ar
    23    28    29   ar
    24     4     5   ar
    25     5     6   ar
    26    12    13    1
    27    13    14    1
    28    14     9    1
    29     6     1   ar
    30    29    21   ar
    31    28    23   ar
    32    18    19    1
@<TRIPOS>MOLECULE
*****
 29 32 0 0 0
SMALL
GASTEIGER

@<TRIPOS>ATOM
      1 C         138.8523  138.4192  162.6645 C.ar    1  UNL1       -0.0206
      2 C         139.1940  137.3364  163.6447 C.ar    1  UNL1       -0.0011
      3 C         138.9795  137.5585  165.1126 C.ar    1  UNL1        0.0373
      4 C         138.4233  138.8635  165.6003 C.ar    1  UNL1        0.1477
      5 C         138.0816  139.9463  164.6201 C.ar    1  UNL1        0.0373
      6 C         138.2961  139.7241  163.1522 C.ar    1  UNL1       -0.0011
      7 C         139.0667  138.1971  161.1966 C.3     1  UNL1        0.0437
      8 C         140.3603  138.6067  160.5572 C.3     1  UNL1        0.0768
      9 C         143.2475  141.2298  162.8006 C.3     1  UNL1        0.0743
     10 C         142.2179  141.8462  161.9006 C.3     1  UNL1        0.0369
     11 C         141.2555  140.9718  161.1528 C.3     1  UNL1        0.0738
     12 N         141.3227  139.4810  161.3050 N.3     1  UNL1       -0.2723
     13 C         142.3523  138.8647  162.2050 C.3     1  UNL1        0.0738
     14 C         143.3147  139.7391  162.9528 C.3     1  UNL1        0.0369
     15 C         144.7036  143.7647  165.4847 C.3     1  UNL1        0.0946
     16 C         143.7412  142.8903  164.7369 C.2     1  UNL1        0.2229
     17 O         142.3101  142.8020  165.1775 O.2     1  UNL1       -0.2751
     18 N         144.2099  142.1042  163.5484 N.am    1  UNL1       -0.3059
     19 H         145.1492  142.1622  163.2592 H       1  UNL1        0.1494
     20 O         138.2089  139.0856  167.0682 O.3     1  UNL1       -0.4313
     21 C         139.2299  139.8369  167.8701 C.ar    1  UNL1        0.2628
     22 N         139.2021  140.0506  169.3545 N.ar    1  UNL1       -0.2050
     23 C         140.4131  140.8521  169.7303 C.ar    1  UNL1        0.0910
     24 C         140.9091  141.3619  171.0508 C.ar    1  UNL1        0.0197
     25 C         142.1815  142.1533  171.1192 C.ar    1  UNL1        0.0016
     26 C         142.9578  142.4349  169.8670 C.ar    1  UNL1        0.0006
     27 C         142.4617  141.9251  168.5464 C.ar    1  UNL1        0.0081
     28 C         141.1893  141.1337  168.4780 C.ar    1  UNL1        0.0515
     29 S         140.4581  140.5063  167.3284 S.2     1  UNL1       -0.0283
@<TRIPOS>BOND
     1    15    16    1
     2    16    17    2
     3    16    18   am
     4    18     9    1
     5     9    10    1
     6    10    11    1
     7    11    12    1
     8    12     8    1
     9     8     7    1
    10     7     1    1
    11     1     2   ar
    12     2     3   ar
    13     3     4   ar
    14     4    20    1
    15    20    21    1
    16    21    22   ar
    17    22    23   ar
    18    23    24   ar
    19    24    25   ar
    20    25    26   ar
    21    26    27   ar
    22    27    28   ar
    23    28    29   ar
    24     4     5   ar
    25     5     6   ar
    26    12    13    1
    27    13    14    1
    28    14     9    1
    29     6     1   ar
    30    29    21   ar
    31    28    23   ar
    32    18    19    1
@<TRIPOS>MOLECULE
*****
 29 32 0 0 0
SMALL
GASTEIGER

@<TRIPOS>ATOM
      1 C         143.6849  140.9112  161.8270 C.ar    1  UNL1       -0.0206
      2 C         142.7750  142.0246  162.2539 C.ar    1  UNL1       -0.0011
      3 C         142.9250  142.6353  163.6158 C.ar    1  UNL1        0.0373
      4 C         143.9849  142.1326  164.5506 C.ar    1  UNL1        0.1477
      5 C         144.8948  141.0191  164.1236 C.ar    1  UNL1        0.0373
      6 C         144.7447  140.4084  162.7618 C.ar    1  UNL1       -0.0011
      7 C         143.5348  140.3004  160.4651 C.3     1  UNL1        0.0437
      8 C         142.4975  139.2435  160.2273 C.3     1  UNL1        0.0768
      9 C         139.7138  138.0350  163.5500 C.3     1  UNL1        0.0743
     10 C         139.2285  138.9406  162.4571 C.3     1  UNL1        0.0369
     11 C         140.1563  139.3434  161.3495 C.3     1  UNL1        0.0738
     12 N         141.5696  138.8407  161.3348 N.3     1  UNL1       -0.2723
     13 C         142.0549  137.9351  162.4278 C.3     1  UNL1        0.0738
     14 C         141.1269  137.5323  163.5354 C.3     1  UNL1        0.0369
     15 C         137.5978  138.1694  166.9048 C.3     1  UNL1        0.0946
     16 C         138.5257  138.5723  165.7972 C.2     1  UNL1        0.2229
     17 O         139.1934  139.9151  165.8292 O.2     1  UNL1       -0.2751
     18 N         138.7859  137.6322  164.6576 N.am    1  UNL1       -0.3059
     19 H         138.3476  136.7509  164.6366 H       1  UNL1        0.1494
     20 O         144.1349  142.7432  165.9124 O.3     1  UNL1       -0.4313
     21 C         143.3271  142.2191  167.0625 C.ar    1  UNL1        0.2628
     22 N         143.4277  142.6715  168.4892 N.ar    1  UNL1       -0.2050
     23 C         142.4397  141.8826  169.2963 C.ar    1  UNL1        0.0910
     24 C         142.0957  141.8986  170.7563 C.ar    1  UNL1        0.0197
     25 C         141.0406  140.9748  171.2884 C.ar    1  UNL1        0.0016
     26 C         140.3294  140.0349  170.3606 C.ar    1  UNL1        0.0006
     27 C         140.6733  140.0189  168.9007 C.ar    1  UNL1        0.0081
     28 C         141.7285  140.9427  168.3686 C.ar    1  UNL1        0.0515
     29 S         142.2770  141.1507  166.9880 S.2     1  UNL1       -0.0283
@<TRIPOS>BOND
     1    15    16    1
     2    16    17    2
     3    16    18   am
     4    18     9    1
     5     9    10    1
     6    10    11    1
     7    11    12    1
     8    12     8    1
     9     8     7    1
    10     7     1    1
    11     1     2   ar
    12     2     3   ar
    13     3     4   ar
    14     4    20    1
    15    20    21    1
    16    21    22   ar
    17    22    23   ar
    18    23    24   ar
    19    24    25   ar
    20    25    26   ar
    21    26    27   ar
    22    27    28   ar
    23    28    29   ar
    24     4     5   ar
    25     5     6   ar
    26    12    13    1
    27    13    14    1
    28    14     9    1
    29     6     1   ar
    30    29    21   ar
    31    28    23   ar
    32    18    19    1
@<TRIPOS>MOLECULE
*****
 29 32 0 0 0
SMALL
GASTEIGER

@<TRIPOS>ATOM
      1 C         140.0215  137.9437  164.6215 C.ar    1  UNL1       -0.0206
      2 C         139.9022  137.6310  163.1594 C.ar    1  UNL1       -0.0011
      3 C         141.1141  137.6942  162.2776 C.ar    1  UNL1        0.0373
      4 C         142.4451  138.0701  162.8580 C.ar    1  UNL1        0.1477
      5 C         142.5644  138.3828  164.3203 C.ar    1  UNL1        0.0373
      6 C         141.3525  138.3196  165.2020 C.ar    1  UNL1       -0.0011
      7 C         138.8096  137.8805  165.5033 C.3     1  UNL1        0.0437
      8 C         138.0914  139.1416  165.8825 C.3     1  UNL1        0.0768
      9 C         138.8562  142.9409  163.5954 C.3     1  UNL1        0.0743
     10 C         137.9342  141.8998  163.0333 C.3     1  UNL1        0.0369
     11 C         137.6792  140.6334  163.7956 C.3     1  UNL1        0.0738
     12 N         138.3463  140.4080  165.1202 N.3     1  UNL1       -0.2723
     13 C         139.2683  141.4491  165.6823 C.3     1  UNL1        0.0738
     14 C         139.5233  142.7156  164.9199 C.3     1  UNL1        0.0369
     15 C         140.4027  145.5009  160.9869 C.3     1  UNL1        0.0946
     16 C         140.1478  144.2345  161.7492 C.2     1  UNL1        0.2229
     17 O         140.9294  142.9953  161.4277 O.2     1  UNL1       -0.2751
     18 N         139.1111  144.2073  162.8331 N.am    1  UNL1       -0.3059
     19 H         138.5981  145.0206  163.0442 H       1  UNL1        0.1494
     20 O         143.6570  138.1332  161.9763 O.3     1  UNL1       -0.4313
     21 C         143.7253  139.1399  160.8664 C.ar    1  UNL1        0.2628
     22 N         143.7169  138.8350  159.3978 N.ar    1  UNL1       -0.2050
     23 C         143.8004  140.1349  158.6539 C.ar    1  UNL1        0.0910
     24 C         143.8295  140.4526  157.1883 C.ar    1  UNL1        0.0197
     25 C         143.9187  141.8785  156.7316 C.ar    1  UNL1        0.0016
     26 C         143.9787  142.9869  157.7405 C.ar    1  UNL1        0.0006
     27 C         143.9496  142.6692  159.2062 C.ar    1  UNL1        0.0081
     28 C         143.8604  141.2433  159.6629 C.ar    1  UNL1        0.0515
     29 S         143.8140  140.6283  161.0303 S.2     1  UNL1       -0.0283
@<TRIPOS>BOND
     1    15    16    1
     2    16    17    2
     3    16    18   am
     4    18     9    1
     5     9    10    1
     6    10    11    1
     7    11    12    1
     8    12     8    1
     9     8     7    1
    10     7     1    1
    11     1     2   ar
    12     2     3   ar
    13     3     4   ar
    14     4    20    1
    15    20    21    1
    16    21    22   ar
    17    22    23   ar
    18    23    24   ar
    19    24    25   ar
    20    25    26   ar
    21    26    27   ar
    22    27    28   ar
    23    28    29   ar
    24     4     5   ar
    25     5     6   ar
    26    12    13    1
    27    13    14    1
    28    14     9    1
    29     6     1   ar
    30    29    21   ar
    31    28    23   ar
    32    18    19    1
@<TRIPOS>MOLECULE
*****
 29 32 0 0 0
SMALL
GASTEIGER

@<TRIPOS>ATOM
      1 C         138.7027  140.7296  165.5095 C.ar    1  UNL1       -0.0206
      2 C         139.8999  141.5307  165.9278 C.ar    1  UNL1       -0.0011
      3 C         140.1950  142.8419  165.2617 C.ar    1  UNL1        0.0373
      4 C         139.2929  143.3521  164.1773 C.ar    1  UNL1        0.1477
      5 C         138.0956  142.5509  163.7590 C.ar    1  UNL1        0.0373
      6 C         137.8006  141.2398  164.4251 C.ar    1  UNL1       -0.0011
      7 C         138.4076  139.4184  166.1756 C.3     1  UNL1        0.0437
      8 C         138.5782  138.1362  165.4161 C.3     1  UNL1        0.0768
      9 C         141.1750  138.0255  161.7426 C.3     1  UNL1        0.0743
     10 C         139.6816  137.9910  161.6067 C.3     1  UNL1        0.0369
     11 C         138.8160  138.0278  162.8311 C.3     1  UNL1        0.0738
     12 N         139.4438  138.0993  164.1916 N.3     1  UNL1       -0.2723
     13 C         140.9372  138.1339  164.3276 C.3     1  UNL1        0.0738
     14 C         141.8028  138.0970  163.1030 C.3     1  UNL1        0.0369
     15 C         143.0738  139.1849  158.4563 C.3     1  UNL1        0.0946
     16 C         142.2082  139.2218  159.6807 C.2     1  UNL1        0.2229
     17 O         141.5101  140.4918  160.0677 O.2     1  UNL1       -0.2751
     18 N         142.0406  137.9887  160.5182 N.am    1  UNL1       -0.3059
     19 H         142.4988  137.1551  160.2642 H       1  UNL1        0.1494
     20 O         139.5879  144.6632  163.5112 O.3     1  UNL1       -0.4313
     21 C         140.1425  144.6886  162.1177 C.ar    1  UNL1        0.2628
     22 N         139.6254  145.5152  160.9778 N.ar    1  UNL1       -0.2050
     23 C         140.4748  145.2292  159.7751 C.ar    1  UNL1        0.0910
     24 C         140.4340  145.7529  158.3700 C.ar    1  UNL1        0.0197
     25 C         141.4353  145.2731  157.3615 C.ar    1  UNL1        0.0016
     26 C         142.4774  144.2697  157.7580 C.ar    1  UNL1        0.0006
     27 C         142.5182  143.7460  159.1630 C.ar    1  UNL1        0.0081
     28 C         141.5169  144.2258  160.1715 C.ar    1  UNL1        0.0515
     29 S         141.3115  143.8917  161.6194 S.2     1  UNL1       -0.0283
@<TRIPOS>BOND
     1    15    16    1
     2    16    17    2
     3    16    18   am
     4    18     9    1
     5     9    10    1
     6    10    11    1
     7    11    12    1
     8    12     8    1
     9     8     7    1
    10     7     1    1
    11     1     2   ar
    12     2     3   ar
    13     3     4   ar
    14     4    20    1
    15    20    21    1
    16    21    22   ar
    17    22    23   ar
    18    23    24   ar
    19    24    25   ar
    20    25    26   ar
    21    26    27   ar
    22    27    28   ar
    23    28    29   ar
    24     4     5   ar
    25     5     6   ar
    26    12    13    1
    27    13    14    1
    28    14     9    1
    29     6     1   ar
    30    29    21   ar
    31    28    23   ar
    32    18    19    1
@<TRIPOS>MOLECULE
*****
 29 32 0 0 0
SMALL
GASTEIGER

@<TRIPOS>ATOM
      1 C         140.3850  138.8421  159.5159 C.ar    1  UNL1       -0.0206
      2 C         141.7515  138.4553  159.9985 C.ar    1  UNL1       -0.0011
      3 C         142.6821  137.7046  159.0928 C.ar    1  UNL1        0.0373
      4 C         142.2461  137.3406  157.7045 C.ar    1  UNL1        0.1477
      5 C         140.8795  137.7274  157.2219 C.ar    1  UNL1        0.0373
      6 C         139.9490  138.4781  158.1276 C.ar    1  UNL1       -0.0011
      7 C         139.4543  139.5929  160.4217 C.3     1  UNL1        0.0437
      8 C         138.4502  138.8475  161.2500 C.3     1  UNL1        0.0768
      9 C         138.5234  139.2055  165.7351 C.3     1  UNL1        0.0743
     10 C         138.1061  140.3767  164.8960 C.3     1  UNL1        0.0369
     11 C         138.0817  140.2573  163.4010 C.3     1  UNL1        0.0738
     12 N         138.4746  138.9668  162.7450 N.3     1  UNL1       -0.2723
     13 C         138.8920  137.7956  163.5842 C.3     1  UNL1        0.0738
     14 C         138.9163  137.9150  165.0793 C.3     1  UNL1        0.0369
     15 C         139.6935  140.1764  169.4010 C.3     1  UNL1        0.0946
     16 C         139.6691  140.0570  167.9059 C.2     1  UNL1        0.2229
     17 O         140.7660  140.6699  167.0866 O.2     1  UNL1       -0.2751
     18 N         138.5478  139.3248  167.2302 N.am    1  UNL1       -0.3059
     19 H         137.8279  138.9225  167.7679 H       1  UNL1        0.1494
     20 O         143.1767  136.5898  156.7987 O.3     1  UNL1       -0.4313
     21 C         143.0010  135.1135  156.5998 C.ar    1  UNL1        0.2628
     22 N         143.7324  134.0313  157.3372 N.ar    1  UNL1       -0.2050
     23 C         143.2464  132.7091  156.8217 C.ar    1  UNL1        0.0910
     24 C         143.6101  131.2980  157.1774 C.ar    1  UNL1        0.0197
     25 C         142.9421  130.1521  156.4771 C.ar    1  UNL1        0.0016
     26 C         141.9103  130.4172  155.4211 C.ar    1  UNL1        0.0006
     27 C         141.5466  131.8282  155.0653 C.ar    1  UNL1        0.0081
     28 C         142.2147  132.9742  155.7656 C.ar    1  UNL1        0.0515
     29 S         142.0630  134.4602  155.6285 S.2     1  UNL1       -0.0283
@<TRIPOS>BOND
     1    15    16    1
     2    16    17    2
     3    16    18   am
     4    18     9    1
     5     9    10    1
     6    10    11    1
     7    11    12    1
     8    12     8    1
     9     8     7    1
    10     7     1    1
    11     1     2   ar
    12     2     3   ar
    13     3     4   ar
    14     4    20    1
    15    20    21    1
    16    21    22   ar
    17    22    23   ar
    18    23    24   ar
    19    24    25   ar
    20    25    26   ar
    21    26    27   ar
    22    27    28   ar
    23    28    29   ar
    24     4     5   ar
    25     5     6   ar
    26    12    13    1
    27    13    14    1
    28    14     9    1
    29     6     1   ar
    30    29    21   ar
    31    28    23   ar
    32    18    19    1
@<TRIPOS>MOLECULE
*****
 29 32 0 0 0
SMALL
GASTEIGER

@<TRIPOS>ATOM
      1 C         142.4928  141.1329  159.1582 C.ar    1  UNL1       -0.0206
      2 C         141.0522  140.7767  159.3768 C.ar    1  UNL1       -0.0011
      3 C         140.6860  139.6987  160.3535 C.ar    1  UNL1        0.0373
      4 C         141.7605  138.9771  161.1117 C.ar    1  UNL1        0.1477
      5 C         143.2011  139.3333  160.8930 C.ar    1  UNL1        0.0373
      6 C         143.5672  140.4112  159.9163 C.ar    1  UNL1       -0.0011
      7 C         142.8590  142.2108  158.1814 C.3     1  UNL1        0.0437
      8 C         143.0109  143.6276  158.6501 C.3     1  UNL1        0.0768
      9 C         140.9486  144.9864  162.4117 C.3     1  UNL1        0.0743
     10 C         140.3320  145.2700  161.0740 C.3     1  UNL1        0.0369
     11 C         141.0194  144.8171  159.8201 C.3     1  UNL1        0.0738
     12 N         142.3235  144.0805  159.9039 N.3     1  UNL1       -0.2723
     13 C         142.9401  143.7969  161.2416 C.3     1  UNL1        0.0738
     14 C         142.2526  144.2499  162.4955 C.3     1  UNL1        0.0369
     15 C         138.5807  144.9947  165.5965 C.3     1  UNL1        0.0946
     16 C         139.2681  144.5418  164.3426 C.2     1  UNL1        0.2229
     17 O         138.9626  143.1913  163.7658 O.2     1  UNL1       -0.2751
     18 N         140.2611  145.4394  163.6656 N.am    1  UNL1       -0.3059
     19 H         140.4617  146.3257  164.0442 H       1  UNL1        0.1494
     20 O         141.3943  137.8992  162.0884 O.3     1  UNL1       -0.4313
     21 C         140.7645  138.2591  163.4013 C.ar    1  UNL1        0.2628
     22 N         139.4188  137.8081  163.8867 N.ar    1  UNL1       -0.2050
     23 C         139.1923  138.4035  165.2447 C.ar    1  UNL1        0.0910
     24 C         138.0439  138.3056  166.2047 C.ar    1  UNL1        0.0197
     25 C         138.1014  139.0269  167.5187 C.ar    1  UNL1        0.0016
     26 C         139.3071  139.8459  167.8726 C.ar    1  UNL1        0.0006
     27 C         140.4555  139.9437  166.9126 C.ar    1  UNL1        0.0081
     28 C         140.3981  139.2225  165.5986 C.ar    1  UNL1        0.0515
     29 S         141.3697  139.1333  164.4594 S.2     1  UNL1       -0.0283
@<TRIPOS>BOND
     1    15    16    1
     2    16    17    2
     3    16    18   am
     4    18     9    1
     5     9    10    1
     6    10    11    1
     7    11    12    1
     8    12     8    1
     9     8     7    1
    10     7     1    1
    11     1     2   ar
    12     2     3   ar
    13     3     4   ar
    14     4    20    1
    15    20    21    1
    16    21    22   ar
    17    22    23   ar
    18    23    24   ar
    19    24    25   ar
    20    25    26   ar
    21    26    27   ar
    22    27    28   ar
    23    28    29   ar
    24     4     5   ar
    25     5     6   ar
    26    12    13    1
    27    13    14    1
    28    14     9    1
    29     6     1   ar
    30    29    21   ar
    31    28    23   ar
    32    18    19    1
@<TRIPOS>MOLECULE
*****
 29 32 0 0 0
SMALL
GASTEIGER

@<TRIPOS>ATOM
      1 C         139.0319  139.6962  159.0103 C.ar    1  UNL1       -0.0206
      2 C         140.0581  138.8411  159.6926 C.ar    1  UNL1       -0.0011
      3 C         139.8312  138.3768  161.1009 C.ar    1  UNL1        0.0373
      4 C         138.5781  138.7678  161.8267 C.ar    1  UNL1        0.1477
      5 C         137.5518  139.6229  161.1443 C.ar    1  UNL1        0.0373
      6 C         137.7788  140.0871  159.7361 C.ar    1  UNL1       -0.0011
      7 C         139.2588  140.1604  157.6020 C.3     1  UNL1        0.0437
      8 C         139.5836  141.5993  157.3298 C.3     1  UNL1        0.0768
      9 C         141.7272  144.0487  160.4371 C.3     1  UNL1        0.0743
     10 C         142.4945  143.0848  159.5815 C.3     1  UNL1        0.0369
     11 C         141.7800  142.2683  158.5458 C.3     1  UNL1        0.0738
     12 N         140.2981  142.4157  158.3656 N.3     1  UNL1       -0.2723
     13 C         139.5308  143.3797  159.2211 C.3     1  UNL1        0.0738
     14 C         140.2454  144.1962  160.2569 C.3     1  UNL1        0.0369
     15 C         143.4165  145.1059  163.8691 C.3     1  UNL1        0.0946
     16 C         142.7020  144.2894  162.8333 C.2     1  UNL1        0.2229
     17 O         142.2479  142.8972  163.1579 O.2     1  UNL1       -0.2751
     18 N         142.4416  144.8652  161.4729 N.am    1  UNL1       -0.3059
     19 H         142.7397  145.7790  161.2598 H       1  UNL1        0.1494
     20 O         138.3511  138.3036  163.2349 O.3     1  UNL1       -0.4313
     21 C         138.8225  139.1418  164.3860 C.ar    1  UNL1        0.2628
     22 N         139.4558  140.4980  164.2881 N.ar    1  UNL1       -0.2050
     23 C         139.7681  140.9654  165.6788 C.ar    1  UNL1        0.0910
     24 C         140.3965  142.2249  166.1970 C.ar    1  UNL1        0.0197
     25 C         140.5845  142.4171  167.6726 C.ar    1  UNL1        0.0016
     26 C         140.1442  141.3497  168.6301 C.ar    1  UNL1        0.0006
     27 C         139.5158  140.0902  168.1120 C.ar    1  UNL1        0.0081
     28 C         139.3278  139.8980  166.6363 C.ar    1  UNL1        0.0515
     29 S         138.7434  138.7710  165.8373 S.2     1  UNL1       -0.0283
@<TRIPOS>BOND
     1    15    16    1
     2    16    17    2
     3    16    18   am
     4    18     9    1
     5     9    10    1
     6    10    11    1
     7    11    12    1
     8    12     8    1
     9     8     7    1
    10     7     1    1
    11     1     2   ar
    12     2     3   ar
    13     3     4   ar
    14     4    20    1
    15    20    21    1
    16    21    22   ar
    17    22    23   ar
    18    23    24   ar
    19    24    25   ar
    20    25    26   ar
    21    26    27   ar
    22    27    28   ar
    23    28    29   ar
    24     4     5   ar
    25     5     6   ar
    26    12    13    1
    27    13    14    1
    28    14     9    1
    29     6     1   ar
    30    29    21   ar
    31    28    23   ar
    32    18    19    1
