@<TRIPOS>MOLECULE
*****
 37 39 0 0 0
SMALL
GASTEIGER

@<TRIPOS>ATOM
      1 C         139.0094  142.5839  161.8077 C.2     1  UNL1        0.2485
      2 O         138.0110  143.7032  161.7913 O.2     1  UNL1       -0.2726
      3 N         139.9998  142.4459  160.6895 N.am    1  UNL1       -0.2823
      4 H         140.6551  141.7112  160.7003 H       1  UNL1        0.1549
      5 C         137.6721  138.0187  161.7317 C.3     1  UNL1        0.0949
      6 C         138.0683  139.4631  161.6512 C.2     1  UNL1        0.2269
      7 O         137.9480  140.2024  160.3517 O.2     1  UNL1       -0.2748
      8 N         138.5849  140.1682  162.8702 N.am    1  UNL1       -0.2655
      9 C         138.7597  139.5626  164.2314 C.3     1  UNL1        0.1206
     10 C         139.3002  140.6228  165.1445 C.ar    1  UNL1       -0.0030
     11 C         139.6679  140.6030  166.5986 C.ar    1  UNL1        0.0155
     12 C         140.1949  141.8440  167.2559 C.ar    1  UNL1        0.1054
     13 C         140.3542  143.1048  166.4591 C.ar    1  UNL1        0.0181
     14 C         139.9865  143.1247  165.0050 C.ar    1  UNL1       -0.0011
     15 C         139.4595  141.8836  164.3478 C.ar    1  UNL1        0.0022
     16 C         139.0175  141.6027  162.9422 C.3     1  UNL1        0.1750
     17 S         140.5626  141.8242  168.7100 S.O2    1  UNL1        0.0104
     18 C         140.9303  141.8045  170.1641 C.3     1  UNL1        0.1816
     19 O         140.7600  140.3389  168.6400 O.2     1  UNL1       -0.1686
     20 O         140.3653  143.3095  168.7801 O.2     1  UNL1       -0.1686
     21 C         139.9917  143.4271  159.5550 C.ar    1  UNL1        0.0503
     22 C         139.2849  143.0890  158.2759 C.ar    1  UNL1        0.0144
     23 C         139.2768  144.0703  157.1415 C.ar    1  UNL1       -0.0002
     24 C         139.9755  145.3897  157.2862 C.ar    1  UNL1        0.0182
     25 C         140.6823  145.7278  158.5653 C.ar    1  UNL1       -0.0002
     26 C         140.6903  144.7465  159.6998 C.ar    1  UNL1        0.0144
     27 C         139.9675  146.3710  156.1517 C.3     1  UNL1        0.2827
     28 O         139.3031  147.3859  157.0342 O.3     1  UNL1       -0.3692
     29 H         139.1550  148.2029  156.5327 H       1  UNL1        0.2112
     30 C         139.9595  147.3523  155.0172 C.3     1  UNL1        0.4311
     31 F         139.9515  148.3336  153.8828 F       1  UNL1       -0.1669
     32 F         138.4609  147.2983  154.9811 F       1  UNL1       -0.1669
     33 F         140.8372  147.4546  154.9567 F       1  UNL1       -0.1669
     34 C         140.6318  145.3562  155.2693 C.3     1  UNL1        0.4311
     35 F         141.2961  144.3413  154.3867 F       1  UNL1       -0.1669
     36 F         139.9281  145.1771  154.7620 F       1  UNL1       -0.1669
     37 F         142.0367  145.2862  155.7903 F       1  UNL1       -0.1669
@<TRIPOS>BOND
     1     5     6    1
     2     6     7    2
     3     6     8   am
     4     8     9    1
     5     9    10    1
     6    10    11   ar
     7    11    12   ar
     8    12    17    1
     9    17    18    1
    10    17    19    2
    11    17    20    2
    12    12    13   ar
    13    13    14   ar
    14    14    15   ar
    15    15    16    1
    16    16     1    1
    17     1     2    2
    18     1     3   am
    19     3    21    1
    20    21    22   ar
    21    22    23   ar
    22    23    24   ar
    23    24    27    1
    24    27    28    1
    25    27    30    1
    26    30    31    1
    27    30    32    1
    28    30    33    1
    29    27    34    1
    30    34    35    1
    31    34    36    1
    32    34    37    1
    33    24    25   ar
    34    25    26   ar
    35    16     8    1
    36    26    21   ar
    37    15    10   ar
    38     3     4    1
    39    28    29    1
@<TRIPOS>MOLECULE
*****
 37 39 0 0 0
SMALL
GASTEIGER

@<TRIPOS>ATOM
      1 C         142.5495  138.0003  158.2124 C.2     1  UNL1        0.2485
      2 O         143.7127  138.8978  157.9102 O.2     1  UNL1       -0.2726
      3 N         141.9043  138.0390  159.5661 N.am    1  UNL1       -0.2823
      4 H         141.1409  137.4500  159.7646 H       1  UNL1        0.1549
      5 C         138.8188  138.6239  155.3265 C.3     1  UNL1        0.0949
      6 C         139.9734  138.5238  156.2787 C.2     1  UNL1        0.2269
      7 O         140.2541  139.6428  157.2373 O.2     1  UNL1       -0.2748
      8 N         140.8474  137.3047  156.2724 N.am    1  UNL1       -0.2655
      9 C         140.6907  136.1122  155.3761 C.3     1  UNL1        0.1206
     10 C         141.7779  135.1345  155.7110 C.ar    1  UNL1       -0.0030
     11 C         142.1205  133.7847  155.1538 C.ar    1  UNL1        0.0155
     12 C         143.2916  133.0231  155.6999 C.ar    1  UNL1        0.1054
     13 C         144.1203  133.6114  156.8032 C.ar    1  UNL1        0.0181
     14 C         143.7778  134.9613  157.3603 C.ar    1  UNL1       -0.0011
     15 C         142.6066  135.7229  156.8142 C.ar    1  UNL1        0.0022
     16 C         142.0315  137.0641  157.1612 C.3     1  UNL1        0.1750
     17 S         143.6342  131.6731  155.1428 S.O2    1  UNL1        0.0104
     18 C         143.9767  130.3232  154.5857 C.3     1  UNL1        0.1816
     19 O         144.9945  131.7599  155.7689 O.2     1  UNL1       -0.1686
     20 O         142.2739  131.5864  154.5167 O.2     1  UNL1       -0.1686
     21 C         142.4224  138.9752  160.6174 C.ar    1  UNL1        0.0503
     22 C         143.5793  138.5674  161.4806 C.ar    1  UNL1        0.0144
     23 C         144.0974  139.5036  162.5319 C.ar    1  UNL1       -0.0002
     24 C         143.4585  140.8476  162.7198 C.ar    1  UNL1        0.0182
     25 C         142.3016  141.2555  161.8565 C.ar    1  UNL1       -0.0002
     26 C         141.7835  140.3193  160.8053 C.ar    1  UNL1        0.0144
     27 C         143.9765  141.7839  163.7710 C.3     1  UNL1        0.2827
     28 O         143.5531  140.8194  164.8389 O.3     1  UNL1       -0.3692
     29 H         143.7777  141.1823  165.7099 H       1  UNL1        0.2112
     30 C         144.4945  142.7203  164.8222 C.3     1  UNL1        0.4311
     31 F         145.0126  143.6566  165.8733 F       1  UNL1       -0.1669
     32 F         143.0883  143.0122  165.2551 F       1  UNL1       -0.1669
     33 F         145.3560  142.6167  164.6441 F       1  UNL1       -0.1669
     34 C         144.3999  142.7485  162.7031 C.3     1  UNL1        0.4311
     35 F         144.8232  143.7132  161.6353 F       1  UNL1       -0.1669
     36 F         143.7838  143.3644  162.8635 F       1  UNL1       -0.1669
     37 F         145.5728  142.0774  162.0520 F       1  UNL1       -0.1669
@<TRIPOS>BOND
     1     5     6    1
     2     6     7    2
     3     6     8   am
     4     8     9    1
     5     9    10    1
     6    10    11   ar
     7    11    12   ar
     8    12    17    1
     9    17    18    1
    10    17    19    2
    11    17    20    2
    12    12    13   ar
    13    13    14   ar
    14    14    15   ar
    15    15    16    1
    16    16     1    1
    17     1     2    2
    18     1     3   am
    19     3    21    1
    20    21    22   ar
    21    22    23   ar
    22    23    24   ar
    23    24    27    1
    24    27    28    1
    25    27    30    1
    26    30    31    1
    27    30    32    1
    28    30    33    1
    29    27    34    1
    30    34    35    1
    31    34    36    1
    32    34    37    1
    33    24    25   ar
    34    25    26   ar
    35    16     8    1
    36    26    21   ar
    37    15    10   ar
    38     3     4    1
    39    28    29    1
@<TRIPOS>MOLECULE
*****
 37 39 0 0 0
SMALL
GASTEIGER

@<TRIPOS>ATOM
      1 C         141.6424  139.0534  158.7514 C.2     1  UNL1        0.2485
      2 O         142.4601  138.2403  159.7105 O.2     1  UNL1       -0.2726
      3 N         140.3852  139.7247  159.2195 N.am    1  UNL1       -0.2823
      4 H         139.8484  140.2584  158.5900 H       1  UNL1        0.1549
      5 C         139.4836  137.3914  154.8510 C.3     1  UNL1        0.0949
      6 C         140.0846  137.8719  156.1386 C.2     1  UNL1        0.2269
      7 O         139.4046  137.5721  157.4415 O.2     1  UNL1       -0.2748
      8 N         141.3655  138.6522  156.1232 N.am    1  UNL1       -0.2655
      9 C         142.1554  139.0264  154.9042 C.3     1  UNL1        0.1206
     10 C         143.3596  139.8008  155.3518 C.ar    1  UNL1       -0.0030
     11 C         144.4918  140.4243  154.5906 C.ar    1  UNL1        0.0155
     12 C         145.5783  141.1522  155.3252 C.ar    1  UNL1        0.1054
     13 C         145.5326  141.2566  156.8208 C.ar    1  UNL1        0.0181
     14 C         144.4005  140.6330  157.5820 C.ar    1  UNL1       -0.0011
     15 C         143.3140  139.9051  156.8474 C.ar    1  UNL1        0.0022
     16 C         142.0816  139.1952  157.3242 C.3     1  UNL1        0.1750
     17 S         146.7105  141.7758  154.5640 S.O2    1  UNL1        0.0104
     18 C         147.8427  142.3994  153.8029 C.3     1  UNL1        0.1816
     19 O         147.4548  141.9921  155.8483 O.2     1  UNL1       -0.1686
     20 O         145.9662  141.5596  153.2798 O.2     1  UNL1       -0.1686
     21 C         139.9460  139.5828  160.6468 C.ar    1  UNL1        0.0503
     22 C         140.2995  140.6413  161.6490 C.ar    1  UNL1        0.0144
     23 C         139.8603  140.4995  163.0763 C.ar    1  UNL1       -0.0002
     24 C         139.0676  139.2991  163.5011 C.ar    1  UNL1        0.0182
     25 C         138.7140  138.2405  162.4989 C.ar    1  UNL1       -0.0002
     26 C         139.1533  138.3824  161.0716 C.ar    1  UNL1        0.0144
     27 C         138.6283  139.1571  164.9284 C.3     1  UNL1        0.2827
     28 O         137.8196  140.4144  164.8046 O.3     1  UNL1       -0.3692
     29 H         137.3775  140.5988  165.6481 H       1  UNL1        0.2112
     30 C         138.1891  139.0151  166.3556 C.3     1  UNL1        0.4311
     31 F         137.7498  138.8730  167.7828 F       1  UNL1       -0.1669
     32 F         139.4739  139.6394  166.8131 F       1  UNL1       -0.1669
     33 F         137.4044  138.6390  166.1902 F       1  UNL1       -0.1669
     34 C         139.4370  137.8998  165.0521 C.3     1  UNL1        0.4311
     35 F         140.2456  136.6425  165.1759 F       1  UNL1       -0.1669
     36 F         138.7547  137.3383  165.1140 F       1  UNL1       -0.1669
     37 F         140.8584  138.3753  164.9943 F       1  UNL1       -0.1669
@<TRIPOS>BOND
     1     5     6    1
     2     6     7    2
     3     6     8   am
     4     8     9    1
     5     9    10    1
     6    10    11   ar
     7    11    12   ar
     8    12    17    1
     9    17    18    1
    10    17    19    2
    11    17    20    2
    12    12    13   ar
    13    13    14   ar
    14    14    15   ar
    15    15    16    1
    16    16     1    1
    17     1     2    2
    18     1     3   am
    19     3    21    1
    20    21    22   ar
    21    22    23   ar
    22    23    24   ar
    23    24    27    1
    24    27    28    1
    25    27    30    1
    26    30    31    1
    27    30    32    1
    28    30    33    1
    29    27    34    1
    30    34    35    1
    31    34    36    1
    32    34    37    1
    33    24    25   ar
    34    25    26   ar
    35    16     8    1
    36    26    21   ar
    37    15    10   ar
    38     3     4    1
    39    28    29    1
@<TRIPOS>MOLECULE
*****
 37 39 0 0 0
SMALL
GASTEIGER

@<TRIPOS>ATOM
      1 C         141.6531  142.5271  162.5169 C.2     1  UNL1        0.2485
      2 O         140.9957  141.2027  162.7695 O.2     1  UNL1       -0.2726
      3 N         142.0650  143.3921  163.6711 N.am    1  UNL1       -0.2823
      4 H         142.4965  144.2614  163.5054 H       1  UNL1        0.1549
      5 C         139.8479  146.3500  160.3347 C.3     1  UNL1        0.0949
      6 C         140.3615  145.1734  161.1103 C.2     1  UNL1        0.2269
      7 O         139.9317  144.9672  162.5325 O.2     1  UNL1       -0.2748
      8 N         141.3049  144.2028  160.4637 N.am    1  UNL1       -0.2655
      9 C         141.8203  144.2782  159.0571 C.3     1  UNL1        0.1206
     10 C         142.7325  143.1085  158.8343 C.ar    1  UNL1       -0.0030
     11 C         143.5253  142.6672  157.6398 C.ar    1  UNL1        0.0155
     12 C         144.3665  141.4275  157.7144 C.ar    1  UNL1        0.1054
     13 C         144.4148  140.6292  158.9834 C.ar    1  UNL1        0.0181
     14 C         143.6221  141.0705  160.1778 C.ar    1  UNL1       -0.0011
     15 C         142.7809  142.3101  160.1032 C.ar    1  UNL1        0.0022
     16 C         141.8986  142.9865  161.1103 C.3     1  UNL1        0.1750
     17 S         145.1593  140.9861  156.5199 S.O2    1  UNL1        0.0104
     18 C         145.9521  140.5449  155.3255 C.3     1  UNL1        0.1816
     19 O         144.6136  139.5972  156.6709 O.2     1  UNL1       -0.1686
     20 O         145.7051  142.3751  156.3690 O.2     1  UNL1       -0.1686
     21 C         141.8196  142.9327  165.0778 C.ar    1  UNL1        0.0503
     22 C         140.4752  143.1392  165.7104 C.ar    1  UNL1        0.0144
     23 C         140.2297  142.6798  167.1171 C.ar    1  UNL1       -0.0002
     24 C         141.3286  142.0140  167.8911 C.ar    1  UNL1        0.0182
     25 C         142.6729  141.8075  167.2585 C.ar    1  UNL1       -0.0002
     26 C         142.9184  142.2669  165.8518 C.ar    1  UNL1        0.0144
     27 C         141.0832  141.5545  169.2978 C.3     1  UNL1        0.2827
     28 O         141.4358  140.1515  168.9011 O.3     1  UNL1       -0.3692
     29 H         141.3621  139.5690  169.6733 H       1  UNL1        0.2112
     30 C         140.8378  141.0952  170.7044 C.3     1  UNL1        0.4311
     31 F         140.5923  140.6358  172.1111 F       1  UNL1       -0.1669
     32 F         139.5954  140.3845  170.2556 F       1  UNL1       -0.1669
     33 F         141.5482  141.4786  171.0688 F       1  UNL1       -0.1669
     34 C         140.7306  142.9575  169.6944 C.3     1  UNL1        0.4311
     35 F         140.3779  144.3605  170.0910 F       1  UNL1       -0.1669
     36 F         139.8518  142.8475  169.7105 F       1  UNL1       -0.1669
     37 F         142.0580  143.6463  169.8110 F       1  UNL1       -0.1669
@<TRIPOS>BOND
     1     5     6    1
     2     6     7    2
     3     6     8   am
     4     8     9    1
     5     9    10    1
     6    10    11   ar
     7    11    12   ar
     8    12    17    1
     9    17    18    1
    10    17    19    2
    11    17    20    2
    12    12    13   ar
    13    13    14   ar
    14    14    15   ar
    15    15    16    1
    16    16     1    1
    17     1     2    2
    18     1     3   am
    19     3    21    1
    20    21    22   ar
    21    22    23   ar
    22    23    24   ar
    23    24    27    1
    24    27    28    1
    25    27    30    1
    26    30    31    1
    27    30    32    1
    28    30    33    1
    29    27    34    1
    30    34    35    1
    31    34    36    1
    32    34    37    1
    33    24    25   ar
    34    25    26   ar
    35    16     8    1
    36    26    21   ar
    37    15    10   ar
    38     3     4    1
    39    28    29    1
@<TRIPOS>MOLECULE
*****
 37 39 0 0 0
SMALL
GASTEIGER

@<TRIPOS>ATOM
      1 C         143.7017  140.2784  158.8507 C.2     1  UNL1        0.2485
      2 O         142.8859  141.4757  159.2391 O.2     1  UNL1       -0.2726
      3 N         144.0501  139.2428  159.8786 N.am    1  UNL1       -0.2823
      4 H         144.5855  138.4569  159.6237 H       1  UNL1        0.1549
      5 C         142.2862  137.0480  155.6575 C.3     1  UNL1        0.0949
      6 C         142.6640  138.0217  156.7341 C.2     1  UNL1        0.2269
      7 O         142.0135  137.9378  158.0831 O.2     1  UNL1       -0.2748
      8 N         143.6923  139.0793  156.4618 N.am    1  UNL1       -0.2655
      9 C         144.4241  139.2854  155.1687 C.3     1  UNL1        0.1206
     10 C         145.3534  140.4500  155.3425 C.ar    1  UNL1       -0.0030
     11 C         146.3226  141.1090  154.4064 C.ar    1  UNL1        0.0155
     12 C         147.1343  142.2817  154.8708 C.ar    1  UNL1        0.1054
     13 C         146.9768  142.7954  156.2713 C.ar    1  UNL1        0.0181
     14 C         146.0076  142.1364  157.2073 C.ar    1  UNL1       -0.0011
     15 C         145.1959  140.9637  156.7429 C.ar    1  UNL1        0.0022
     16 C         144.1693  140.1166  157.4347 C.3     1  UNL1        0.1750
     17 S         148.1036  142.9408  153.9347 S.O2    1  UNL1        0.0104
     18 C         149.0729  143.5999  152.9987 C.3     1  UNL1        0.1816
     19 O         148.7952  141.6263  153.7253 O.2     1  UNL1       -0.1686
     20 O         147.4121  144.2552  154.1442 O.2     1  UNL1       -0.1686
     21 C         143.5825  139.4046  161.2946 C.ar    1  UNL1        0.0503
     22 C         142.2288  138.9013  161.6997 C.ar    1  UNL1        0.0144
     23 C         141.7613  139.0631  163.1157 C.ar    1  UNL1       -0.0002
     24 C         142.6475  139.7282  164.1267 C.ar    1  UNL1        0.0182
     25 C         144.0013  140.2316  163.7217 C.ar    1  UNL1       -0.0002
     26 C         144.4688  140.0698  162.3056 C.ar    1  UNL1        0.0144
     27 C         142.1801  139.8901  165.5428 C.3     1  UNL1        0.2827
     28 O         141.3414  141.0638  165.1319 O.3     1  UNL1       -0.3692
     29 H         140.8756  141.4155  165.9067 H       1  UNL1        0.2112
     30 C         141.7127  140.0519  166.9589 C.3     1  UNL1        0.4311
     31 F         141.2453  140.2136  168.3751 F       1  UNL1       -0.1669
     32 F         142.5137  141.3144  167.0791 F       1  UNL1       -0.1669
     33 F         141.2096  139.3236  166.9905 F       1  UNL1       -0.1669
     34 C         143.0188  138.7163  165.9537 C.3     1  UNL1        0.4311
     35 F         143.8576  137.5426  166.3647 F       1  UNL1       -0.1669
     36 F         143.6482  139.1756  166.3750 F       1  UNL1       -0.1669
     37 F         142.2798  137.5321  165.4047 F       1  UNL1       -0.1669
@<TRIPOS>BOND
     1     5     6    1
     2     6     7    2
     3     6     8   am
     4     8     9    1
     5     9    10    1
     6    10    11   ar
     7    11    12   ar
     8    12    17    1
     9    17    18    1
    10    17    19    2
    11    17    20    2
    12    12    13   ar
    13    13    14   ar
    14    14    15   ar
    15    15    16    1
    16    16     1    1
    17     1     2    2
    18     1     3   am
    19     3    21    1
    20    21    22   ar
    21    22    23   ar
    22    23    24   ar
    23    24    27    1
    24    27    28    1
    25    27    30    1
    26    30    31    1
    27    30    32    1
    28    30    33    1
    29    27    34    1
    30    34    35    1
    31    34    36    1
    32    34    37    1
    33    24    25   ar
    34    25    26   ar
    35    16     8    1
    36    26    21   ar
    37    15    10   ar
    38     3     4    1
    39    28    29    1
@<TRIPOS>MOLECULE
*****
 37 39 0 0 0
SMALL
GASTEIGER

@<TRIPOS>ATOM
      1 C         141.8654  139.0697  162.3435 C.2     1  UNL1        0.2485
      2 O         141.6771  137.5835  162.2697 O.2     1  UNL1       -0.2726
      3 N         141.7131  139.9072  161.1083 N.am    1  UNL1       -0.2823
      4 H         141.8367  140.8827  161.1566 H       1  UNL1        0.1549
      5 C         145.8133  141.4726  163.4731 C.3     1  UNL1        0.0949
      6 C         144.6104  140.7003  163.0189 C.2     1  UNL1        0.2269
      7 O         144.5499  140.1602  161.6208 O.2     1  UNL1       -0.2748
      8 N         143.4679  140.4681  163.9627 N.am    1  UNL1       -0.2655
      9 C         143.3864  140.9446  165.3826 C.3     1  UNL1        0.1206
     10 C         142.0744  140.4896  165.9498 C.ar    1  UNL1       -0.0030
     11 C         141.4497  140.6674  167.3018 C.ar    1  UNL1        0.0155
     12 C         140.0956  140.0875  167.5844 C.ar    1  UNL1        0.1054
     13 C         139.3661  139.3297  166.5149 C.ar    1  UNL1        0.0181
     14 C         139.9908  139.1520  165.1629 C.ar    1  UNL1       -0.0011
     15 C         141.3450  139.7319  164.8803 C.ar    1  UNL1        0.0022
     16 C         142.2062  139.7186  163.6522 C.3     1  UNL1        0.1750
     17 S         139.4708  140.2652  168.9365 S.O2    1  UNL1        0.0104
     18 C         138.8460  140.4429  170.2886 C.3     1  UNL1        0.1816
     19 O         140.5625  141.2216  169.3153 O.2     1  UNL1       -0.1686
     20 O         138.3791  139.3089  168.5578 O.2     1  UNL1       -0.1686
     21 C         141.3724  139.2583  159.7995 C.ar    1  UNL1        0.0503
     22 C         142.4114  138.4670  159.0617 C.ar    1  UNL1        0.0144
     23 C         142.0707  137.8181  157.7530 C.ar    1  UNL1       -0.0002
     24 C         140.6909  137.9605  157.1821 C.ar    1  UNL1        0.0182
     25 C         139.6519  138.7518  157.9198 C.ar    1  UNL1       -0.0002
     26 C         139.9926  139.4007  159.2286 C.ar    1  UNL1        0.0144
     27 C         140.3501  137.3117  155.8733 C.3     1  UNL1        0.2827
     28 O         139.1707  136.6409  156.5129 O.3     1  UNL1       -0.3692
     29 H         138.7088  136.1007  155.8528 H       1  UNL1        0.2112
     30 C         140.0094  136.6628  154.5645 C.3     1  UNL1        0.4311
     31 F         139.6687  136.0140  153.2557 F       1  UNL1       -0.1669
     32 F         140.4501  135.3359  155.1076 F       1  UNL1       -0.1669
     33 F         139.7266  137.3938  154.1519 F       1  UNL1       -0.1669
     34 C         141.5295  137.9825  155.2337 C.3     1  UNL1        0.4311
     35 F         142.7089  138.6533  154.5941 F       1  UNL1       -0.1669
     36 F         141.2203  138.8112  155.2795 F       1  UNL1       -0.1669
     37 F         142.4674  136.8527  154.9268 F       1  UNL1       -0.1669
@<TRIPOS>BOND
     1     5     6    1
     2     6     7    2
     3     6     8   am
     4     8     9    1
     5     9    10    1
     6    10    11   ar
     7    11    12   ar
     8    12    17    1
     9    17    18    1
    10    17    19    2
    11    17    20    2
    12    12    13   ar
    13    13    14   ar
    14    14    15   ar
    15    15    16    1
    16    16     1    1
    17     1     2    2
    18     1     3   am
    19     3    21    1
    20    21    22   ar
    21    22    23   ar
    22    23    24   ar
    23    24    27    1
    24    27    28    1
    25    27    30    1
    26    30    31    1
    27    30    32    1
    28    30    33    1
    29    27    34    1
    30    34    35    1
    31    34    36    1
    32    34    37    1
    33    24    25   ar
    34    25    26   ar
    35    16     8    1
    36    26    21   ar
    37    15    10   ar
    38     3     4    1
    39    28    29    1
@<TRIPOS>MOLECULE
*****
 37 39 0 0 0
SMALL
GASTEIGER

@<TRIPOS>ATOM
      1 C         141.4235  140.9585  162.1983 C.2     1  UNL1        0.2485
      2 O         140.1614  140.3043  162.6767 O.2     1  UNL1       -0.2726
      3 N         142.4215  141.4781  163.1903 N.am    1  UNL1       -0.2823
      4 H         143.2499  141.9075  162.8763 H       1  UNL1        0.1549
      5 C         141.2908  144.9126  159.5557 C.3     1  UNL1        0.0949
      6 C         141.3062  143.7265  160.4737 C.2     1  UNL1        0.2269
      7 O         140.9940  143.9015  161.9304 O.2     1  UNL1       -0.2748
      8 N         141.6338  142.3654  159.9352 N.am    1  UNL1       -0.2655
      9 C         141.9650  142.0376  158.5094 C.3     1  UNL1        0.1206
     10 C         142.2236  140.5627  158.4209 C.ar    1  UNL1       -0.0030
     11 C         142.5930  139.6758  157.2690 C.ar    1  UNL1        0.0155
     12 C         142.7910  138.2052  157.4881 C.ar    1  UNL1        0.1054
     13 C         142.6196  137.6215  158.8592 C.ar    1  UNL1        0.0181
     14 C         142.2502  138.5083  160.0111 C.ar    1  UNL1       -0.0011
     15 C         142.0522  139.9789  159.7920 C.ar    1  UNL1        0.0022
     16 C         141.6877  141.0931  160.7278 C.3     1  UNL1        0.1750
     17 S         143.1604  137.3183  156.3362 S.O2    1  UNL1        0.0104
     18 C         143.5298  136.4314  155.1843 C.3     1  UNL1        0.1816
     19 O         141.9490  136.4735  156.5981 O.2     1  UNL1       -0.1686
     20 O         144.3719  138.1631  156.0743 O.2     1  UNL1       -0.1686
     21 C         142.1573  141.3435  164.6607 C.ar    1  UNL1        0.0503
     22 C         142.7729  140.2146  165.4331 C.ar    1  UNL1        0.0144
     23 C         142.5087  140.0800  166.9035 C.ar    1  UNL1       -0.0002
     24 C         141.6289  141.0744  167.6014 C.ar    1  UNL1        0.0182
     25 C         141.0133  142.2033  166.8290 C.ar    1  UNL1       -0.0002
     26 C         141.2775  142.3379  165.3586 C.ar    1  UNL1        0.0144
     27 C         141.3646  140.9399  169.0718 C.3     1  UNL1        0.2827
     28 O         140.0061  140.3767  168.7763 O.3     1  UNL1       -0.3692
     29 H         139.5522  140.1733  169.6090 H       1  UNL1        0.2112
     30 C         141.1004  140.8054  170.5423 C.3     1  UNL1        0.4311
     31 F         140.8362  140.6709  172.0127 F       1  UNL1       -0.1669
     32 F         141.0246  139.3148  170.3923 F       1  UNL1       -0.1669
     33 F         141.1258  141.6693  170.7361 F       1  UNL1       -0.1669
     34 C         142.7231  141.5030  169.3674 C.3     1  UNL1        0.4311
     35 F         144.0816  142.0662  169.6630 F       1  UNL1       -0.1669
     36 F         143.1228  140.7329  169.5457 F       1  UNL1       -0.1669
     37 F         142.5521  142.9813  169.1791 F       1  UNL1       -0.1669
@<TRIPOS>BOND
     1     5     6    1
     2     6     7    2
     3     6     8   am
     4     8     9    1
     5     9    10    1
     6    10    11   ar
     7    11    12   ar
     8    12    17    1
     9    17    18    1
    10    17    19    2
    11    17    20    2
    12    12    13   ar
    13    13    14   ar
    14    14    15   ar
    15    15    16    1
    16    16     1    1
    17     1     2    2
    18     1     3   am
    19     3    21    1
    20    21    22   ar
    21    22    23   ar
    22    23    24   ar
    23    24    27    1
    24    27    28    1
    25    27    30    1
    26    30    31    1
    27    30    32    1
    28    30    33    1
    29    27    34    1
    30    34    35    1
    31    34    36    1
    32    34    37    1
    33    24    25   ar
    34    25    26   ar
    35    16     8    1
    36    26    21   ar
    37    15    10   ar
    38     3     4    1
    39    28    29    1
@<TRIPOS>MOLECULE
*****
 37 39 0 0 0
SMALL
GASTEIGER

@<TRIPOS>ATOM
      1 C         141.9350  142.3705  162.7019 C.2     1  UNL1        0.2485
      2 O         142.1813  140.9398  162.3247 O.2     1  UNL1       -0.2726
      3 N         142.4958  143.4760  161.8573 N.am    1  UNL1       -0.2823
      4 H         142.3342  144.4151  162.1048 H       1  UNL1        0.1549
      5 C         137.6157  144.3547  162.9074 C.3     1  UNL1        0.0949
      6 C         138.9713  143.7361  162.7354 C.2     1  UNL1        0.2269
      7 O         139.5325  143.5301  161.3598 O.2     1  UNL1       -0.2748
      8 N         139.7656  143.3234  163.9391 N.am    1  UNL1       -0.2655
      9 C         139.3371  143.4660  165.3695 C.3     1  UNL1        0.1206
     10 C         140.4346  142.9265  166.2381 C.ar    1  UNL1       -0.0030
     11 C         140.5691  142.8072  167.7273 C.ar    1  UNL1        0.0155
     12 C         141.8103  142.2118  168.3229 C.ar    1  UNL1        0.1054
     13 C         142.9171  141.7357  167.4293 C.ar    1  UNL1        0.0181
     14 C         142.7826  141.8550  165.9401 C.ar    1  UNL1       -0.0011
     15 C         141.5413  142.4504  165.3446 C.ar    1  UNL1        0.0022
     16 C         141.1278  142.6957  163.9237 C.3     1  UNL1        0.1750
     17 S         141.9449  142.0924  169.8121 S.O2    1  UNL1        0.0104
     18 C         142.0795  141.9731  171.3012 C.3     1  UNL1        0.1816
     19 O         140.8569  143.1092  169.9919 O.2     1  UNL1       -0.1686
     20 O         143.0329  141.0757  169.6322 O.2     1  UNL1       -0.1686
     21 C         143.3030  143.1508  160.6355 C.ar    1  UNL1        0.0503
     22 C         142.6753  143.2406  159.2761 C.ar    1  UNL1        0.0144
     23 C         143.4824  142.9154  158.0543 C.ar    1  UNL1       -0.0002
     24 C         144.9172  142.5002  158.1920 C.ar    1  UNL1        0.0182
     25 C         145.5449  142.4103  159.5514 C.ar    1  UNL1       -0.0002
     26 C         144.7378  142.7356  160.7732 C.ar    1  UNL1        0.0144
     27 C         145.7245  142.1749  156.9703 C.3     1  UNL1        0.2827
     28 O         146.6526  143.3117  157.2807 O.3     1  UNL1       -0.3692
     29 H         147.3448  143.3583  156.6028 H       1  UNL1        0.2112
     30 C         146.5316  141.8496  155.7485 C.3     1  UNL1        0.4311
     31 F         147.3388  141.5242  154.5268 F       1  UNL1       -0.1669
     32 F         146.2096  143.1984  155.1766 F       1  UNL1       -0.1669
     33 F         146.7784  141.0356  155.9957 F       1  UNL1       -0.1669
     34 C         144.7963  141.0382  156.6598 C.3     1  UNL1        0.4311
     35 F         143.8681  139.9014  156.3494 F       1  UNL1       -0.1669
     36 F         145.0230  140.5237  157.3442 F       1  UNL1       -0.1669
     37 F         144.0857  141.4794  155.4146 F       1  UNL1       -0.1669
@<TRIPOS>BOND
     1     5     6    1
     2     6     7    2
     3     6     8   am
     4     8     9    1
     5     9    10    1
     6    10    11   ar
     7    11    12   ar
     8    12    17    1
     9    17    18    1
    10    17    19    2
    11    17    20    2
    12    12    13   ar
    13    13    14   ar
    14    14    15   ar
    15    15    16    1
    16    16     1    1
    17     1     2    2
    18     1     3   am
    19     3    21    1
    20    21    22   ar
    21    22    23   ar
    22    23    24   ar
    23    24    27    1
    24    27    28    1
    25    27    30    1
    26    30    31    1
    27    30    32    1
    28    30    33    1
    29    27    34    1
    30    34    35    1
    31    34    36    1
    32    34    37    1
    33    24    25   ar
    34    25    26   ar
    35    16     8    1
    36    26    21   ar
    37    15    10   ar
    38     3     4    1
    39    28    29    1
@<TRIPOS>MOLECULE
*****
 37 39 0 0 0
SMALL
GASTEIGER

@<TRIPOS>ATOM
      1 C         140.8959  142.2570  161.9952 C.2     1  UNL1        0.2485
      2 O         142.2572  142.7575  162.3775 O.2     1  UNL1       -0.2726
      3 N         139.9340  141.8140  163.0576 N.am    1  UNL1       -0.2823
      4 H         139.0405  141.4855  162.8067 H       1  UNL1        0.1549
      5 C         139.6573  138.4286  159.4565 C.3     1  UNL1        0.0949
      6 C         140.0613  139.5703  160.3414 C.2     1  UNL1        0.2269
      7 O         140.4139  139.3179  161.7774 O.2     1  UNL1       -0.2748
      8 N         140.1127  140.9645  159.7904 N.am    1  UNL1       -0.2655
      9 C         139.7896  141.3686  158.3825 C.3     1  UNL1        0.1206
     10 C         139.9735  142.8532  158.2724 C.ar    1  UNL1       -0.0030
     11 C         139.7996  143.8038  157.1253 C.ar    1  UNL1        0.0155
     12 C         140.0625  145.2679  157.3180 C.ar    1  UNL1        0.1054
     13 C         140.4994  145.7814  158.6580 C.ar    1  UNL1        0.0181
     14 C         140.6732  144.8308  159.8052 C.ar    1  UNL1       -0.0011
     15 C         140.4103  143.3667  159.6124 C.ar    1  UNL1        0.0022
     16 C         140.4963  142.1994  160.5505 C.3     1  UNL1        0.1750
     17 S         139.8887  146.2186  156.1708 S.O2    1  UNL1        0.0104
     18 C         139.7148  147.1693  155.0237 C.3     1  UNL1        0.1816
     19 O         140.4597  145.1944  155.2355 O.2     1  UNL1       -0.1686
     20 O         139.3177  147.2428  157.1062 O.2     1  UNL1       -0.1686
     21 C         140.3336  141.8716  164.5023 C.ar    1  UNL1        0.0503
     22 C         139.8205  142.9752  165.3790 C.ar    1  UNL1        0.0144
     23 C         140.2200  143.0328  166.8236 C.ar    1  UNL1       -0.0002
     24 C         141.1327  141.9867  167.3915 C.ar    1  UNL1        0.0182
     25 C         141.6458  140.8830  166.5149 C.ar    1  UNL1       -0.0002
     26 C         141.2463  140.8254  165.0702 C.ar    1  UNL1        0.0144
     27 C         141.5323  142.0442  168.8362 C.3     1  UNL1        0.2827
     28 O         142.8763  142.5819  168.4431 O.3     1  UNL1       -0.3692
     29 H         143.4096  142.7328  169.2392 H       1  UNL1        0.2112
     30 C         141.9319  142.1016  170.2809 C.3     1  UNL1        0.4311
     31 F         142.3314  142.1591  171.7256 F       1  UNL1       -0.1669
     32 F         142.0342  143.5955  170.1932 F       1  UNL1       -0.1669
     33 F         141.9007  141.2302  170.4364 F       1  UNL1       -0.1669
     34 C         140.1883  141.5064  169.2293 C.3     1  UNL1        0.4311
     35 F         138.8443  140.9686  169.6223 F       1  UNL1       -0.1669
     36 F         140.2854  140.7016  168.8723 F       1  UNL1       -0.1669
     37 F         139.5422  142.6445  169.9622 F       1  UNL1       -0.1669
@<TRIPOS>BOND
     1     5     6    1
     2     6     7    2
     3     6     8   am
     4     8     9    1
     5     9    10    1
     6    10    11   ar
     7    11    12   ar
     8    12    17    1
     9    17    18    1
    10    17    19    2
    11    17    20    2
    12    12    13   ar
    13    13    14   ar
    14    14    15   ar
    15    15    16    1
    16    16     1    1
    17     1     2    2
    18     1     3   am
    19     3    21    1
    20    21    22   ar
    21    22    23   ar
    22    23    24   ar
    23    24    27    1
    24    27    28    1
    25    27    30    1
    26    30    31    1
    27    30    32    1
    28    30    33    1
    29    27    34    1
    30    34    35    1
    31    34    36    1
    32    34    37    1
    33    24    25   ar
    34    25    26   ar
    35    16     8    1
    36    26    21   ar
    37    15    10   ar
    38     3     4    1
    39    28    29    1
