@<TRIPOS>MOLECULE
*****
 31 35 0 0 0
SMALL
GASTEIGER

@<TRIPOS>ATOM
      1 N         139.7199  143.3454  163.3148 N.3     1  UNL1       -0.2725
      2 C         140.9216  142.4479  163.2963 C.3     1  UNL1        0.0738
      3 C         141.5906  142.0636  164.5828 C.3     1  UNL1        0.0376
      4 C         141.0577  142.5768  165.8877 C.3     1  UNL1        0.0841
      5 C         139.8559  143.4743  165.9061 C.3     1  UNL1        0.0376
      6 C         139.1870  143.8585  164.6197 C.3     1  UNL1        0.0738
      7 N         141.7265  142.1925  167.1741 N.am    1  UNL1       -0.2422
      8 C         143.1633  142.4377  167.5283 C.2     1  UNL1        0.3310
      9 O         144.1835  143.1102  166.6583 O.2     1  UNL1       -0.2501
     10 N         143.4008  141.8923  168.9053 N.am    1  UNL1       -0.1647
     11 C         142.1108  141.3100  169.4022 C.2     1  UNL1        0.0708
     12 C         141.7448  140.6349  170.6906 C.3     1  UNL1        0.0729
     13 C         140.3438  140.1452  170.9091 C.2     1  UNL1        0.0097
     14 C         139.3090  140.3307  169.8391 C.2     1  UNL1        0.1375
     15 F         137.9081  139.8411  170.0576 F       1  UNL1       -0.2045
     16 C         139.6751  141.0059  168.5507 C.2     1  UNL1        0.0452
     17 C         141.0760  141.4956  168.3322 C.2     1  UNL1        0.0691
     18 C         139.0511  143.7296  162.0284 C.3     1  UNL1        0.0739
     19 C         138.5932  142.6665  161.0743 C.3     1  UNL1        0.0392
     20 C         137.7968  141.4993  161.5779 C.3     1  UNL1        0.0998
     21 O         138.8647  140.0113  159.2019 O.2     1  UNL1       -0.2705
     22 C         138.9907  139.4211  160.5752 C.2     1  UNL1        0.2739
     23 C         139.6507  138.0869  160.7604 C.3     1  UNL1        0.2900
     24 O         139.7767  137.4966  162.1336 O.3     1  UNL1       -0.4643
     25 C         139.2427  138.2406  163.3217 C.ar    1  UNL1        0.1528
     26 C         139.3687  137.6504  164.6948 C.ar    1  UNL1        0.0382
     27 C         138.8348  138.3944  165.8828 C.ar    1  UNL1        0.0032
     28 C         138.1749  139.7287  165.6976 C.ar    1  UNL1        0.0015
     29 C         138.0488  140.3189  164.3244 C.ar    1  UNL1        0.0180
     30 C         138.5828  139.5749  163.1364 C.ar    1  UNL1        0.0881
     31 N         138.4568  140.1651  161.7631 N.am    1  UNL1       -0.2529
@<TRIPOS>BOND
     1    21    22    2
     2    22    23    1
     3    23    24    1
     4    24    25    1
     5    25    26   ar
     6    26    27   ar
     7    27    28   ar
     8    28    29   ar
     9    29    30   ar
    10    30    31    1
    11    31    20    1
    12    20    19    1
    13    19    18    1
    14    18     1    1
    15     1     2    1
    16     2     3    1
    17     3     4    1
    18     4     7    1
    19     7     8   am
    20     8     9    2
    21     8    10    1
    22    10    11    2
    23    11    12    1
    24    12    13    1
    25    13    14    2
    26    14    15    1
    27    14    16    1
    28    16    17    2
    29     4     5    1
    30     5     6    1
    31    31    22   am
    32     6     1    1
    33    30    25   ar
    34    17     7    1
    35    17    11    1
@<TRIPOS>MOLECULE
*****
 31 35 0 0 0
SMALL
GASTEIGER

@<TRIPOS>ATOM
      1 N         140.6150  139.2579  162.7642 N.3     1  UNL1       -0.2725
      2 C         141.1270  140.6651  162.6760 C.3     1  UNL1        0.0738
      3 C         141.5911  141.3733  163.9142 C.3     1  UNL1        0.0376
      4 C         141.5432  140.6743  165.2406 C.3     1  UNL1        0.0841
      5 C         141.0313  139.2671  165.3287 C.3     1  UNL1        0.0376
      6 C         140.5672  138.5589  164.0905 C.3     1  UNL1        0.0738
      7 N         142.0073  141.3824  166.4787 N.am    1  UNL1       -0.2422
      8 C         143.2686  142.1825  166.6165 C.2     1  UNL1        0.3310
      9 O         144.2873  142.4149  165.5402 O.2     1  UNL1       -0.2501
     10 N         143.3325  142.7094  168.0194 N.am    1  UNL1       -0.1647
     11 C         142.1105  142.2350  168.7488 C.2     1  UNL1        0.0708
     12 C         141.6379  142.4438  170.1569 C.3     1  UNL1        0.0729
     13 C         140.3462  141.8325  170.6130 C.2     1  UNL1        0.0097
     14 C         139.5272  141.0124  169.6607 C.2     1  UNL1        0.1375
     15 F         138.2355  140.4011  170.1166 F       1  UNL1       -0.2045
     16 C         139.9999  140.8036  168.2525 C.2     1  UNL1        0.0452
     17 C         141.2916  141.4149  167.7966 C.2     1  UNL1        0.0691
     18 C         140.1510  138.5498  161.5260 C.3     1  UNL1        0.0739
     19 C         138.7381  138.0554  161.4297 C.3     1  UNL1        0.0392
     20 C         137.6104  139.0326  161.2761 C.3     1  UNL1        0.0998
     21 O         138.1651  139.8011  158.4297 O.2     1  UNL1       -0.2705
     22 C         138.1768  140.8470  159.5049 C.2     1  UNL1        0.2739
     23 C         138.4659  142.2772  159.1569 C.3     1  UNL1        0.2900
     24 O         138.4776  143.3231  160.2321 O.3     1  UNL1       -0.4643
     25 C         138.2003  142.9388  161.6553 C.ar    1  UNL1        0.1528
     26 C         138.2120  143.9847  162.7304 C.ar    1  UNL1        0.0382
     27 C         137.9346  143.6004  164.1536 C.ar    1  UNL1        0.0032
     28 C         137.6456  142.1703  164.5016 C.ar    1  UNL1        0.0015
     29 C         137.6338  141.1244  163.4264 C.ar    1  UNL1        0.0180
     30 C         137.9112  141.5087  162.0033 C.ar    1  UNL1        0.0881
     31 N         137.8995  140.4628  160.9281 N.am    1  UNL1       -0.2529
@<TRIPOS>BOND
     1    21    22    2
     2    22    23    1
     3    23    24    1
     4    24    25    1
     5    25    26   ar
     6    26    27   ar
     7    27    28   ar
     8    28    29   ar
     9    29    30   ar
    10    30    31    1
    11    31    20    1
    12    20    19    1
    13    19    18    1
    14    18     1    1
    15     1     2    1
    16     2     3    1
    17     3     4    1
    18     4     7    1
    19     7     8   am
    20     8     9    2
    21     8    10    1
    22    10    11    2
    23    11    12    1
    24    12    13    1
    25    13    14    2
    26    14    15    1
    27    14    16    1
    28    16    17    2
    29     4     5    1
    30     5     6    1
    31    31    22   am
    32     6     1    1
    33    30    25   ar
    34    17     7    1
    35    17    11    1
@<TRIPOS>MOLECULE
*****
 31 35 0 0 0
SMALL
GASTEIGER

@<TRIPOS>ATOM
      1 N         143.2123  140.6852  162.6451 N.3     1  UNL1       -0.2725
      2 C         141.9216  141.3768  162.9703 C.3     1  UNL1        0.0738
      3 C         141.5422  141.6230  164.4005 C.3     1  UNL1        0.0376
      4 C         142.4537  141.1777  165.5055 C.3     1  UNL1        0.0841
      5 C         143.7444  140.4861  165.1803 C.3     1  UNL1        0.0376
      6 C         144.1237  140.2399  163.7501 C.3     1  UNL1        0.0738
      7 N         142.0744  141.4239  166.9357 N.am    1  UNL1       -0.2422
      8 C         142.8376  142.2613  167.9186 C.2     1  UNL1        0.3310
      9 O         144.1142  142.9995  167.6440 O.2     1  UNL1       -0.2501
     10 N         142.1002  142.2309  169.2245 N.am    1  UNL1       -0.1647
     11 C         140.8812  141.3747  169.0487 C.2     1  UNL1        0.0708
     12 C         139.7837  140.9848  169.9939 C.3     1  UNL1        0.0729
     13 C         138.6701  140.0962  169.5245 C.2     1  UNL1        0.0097
     14 C         138.6541  139.5974  168.1099 C.2     1  UNL1        0.1375
     15 F         137.5406  138.7087  167.6405 F       1  UNL1       -0.2045
     16 C         139.7517  139.9873  167.1647 C.2     1  UNL1        0.0452
     17 C         140.8652  140.8760  167.6341 C.2     1  UNL1        0.0691
     18 C         143.5916  140.4390  161.2149 C.3     1  UNL1        0.0739
     19 C         144.1269  139.1005  160.8007 C.3     1  UNL1        0.0392
     20 C         143.2184  137.9074  160.7661 C.3     1  UNL1        0.0998
     21 O         141.7934  138.6539  158.2338 O.2     1  UNL1       -0.2705
     22 C         141.0180  138.4706  159.5047 C.2     1  UNL1        0.2739
     23 C         139.5301  138.6606  159.5095 C.3     1  UNL1        0.2900
     24 O         138.7547  138.4773  160.7803 O.3     1  UNL1       -0.4643
     25 C         139.4671  138.1041  162.0465 C.ar    1  UNL1        0.1528
     26 C         138.6917  137.9208  163.3173 C.ar    1  UNL1        0.0382
     27 C         139.4042  137.5475  164.5834 C.ar    1  UNL1        0.0032
     28 C         140.8921  137.3575  164.5787 C.ar    1  UNL1        0.0015
     29 C         141.6675  137.5408  163.3078 C.ar    1  UNL1        0.0180
     30 C         140.9550  137.9141  162.0417 C.ar    1  UNL1        0.0881
     31 N         141.7305  138.0974  160.7708 N.am    1  UNL1       -0.2529
@<TRIPOS>BOND
     1    21    22    2
     2    22    23    1
     3    23    24    1
     4    24    25    1
     5    25    26   ar
     6    26    27   ar
     7    27    28   ar
     8    28    29   ar
     9    29    30   ar
    10    30    31    1
    11    31    20    1
    12    20    19    1
    13    19    18    1
    14    18     1    1
    15     1     2    1
    16     2     3    1
    17     3     4    1
    18     4     7    1
    19     7     8   am
    20     8     9    2
    21     8    10    1
    22    10    11    2
    23    11    12    1
    24    12    13    1
    25    13    14    2
    26    14    15    1
    27    14    16    1
    28    16    17    2
    29     4     5    1
    30     5     6    1
    31    31    22   am
    32     6     1    1
    33    30    25   ar
    34    17     7    1
    35    17    11    1
@<TRIPOS>MOLECULE
*****
 31 35 0 0 0
SMALL
GASTEIGER

@<TRIPOS>ATOM
      1 N         144.4525  141.9919  163.8487 N.3     1  UNL1       -0.2725
      2 C         144.3568  143.2161  164.7102 C.3     1  UNL1        0.0738
      3 C         143.7573  143.1227  166.0821 C.3     1  UNL1        0.0376
      4 C         143.2535  141.8051  166.5923 C.3     1  UNL1        0.0841
      5 C         143.3492  140.5810  165.7306 C.3     1  UNL1        0.0376
      6 C         143.9487  140.6744  164.3588 C.3     1  UNL1        0.0738
      7 N         142.6540  141.7117  167.9641 N.am    1  UNL1       -0.2422
      8 C         143.2671  142.2294  169.2313 C.2     1  UNL1        0.3310
      9 O         144.5875  142.9313  169.3494 O.2     1  UNL1       -0.2501
     10 N         142.3282  141.9218  170.3599 N.am    1  UNL1       -0.1647
     11 C         141.1346  141.2140  169.7901 C.2     1  UNL1        0.0708
     12 C         139.8906  140.6711  170.4284 C.3     1  UNL1        0.0729
     13 C         138.8477  139.9982  169.5859 C.2     1  UNL1        0.0097
     14 C         139.0491  139.8684  168.1050 C.2     1  UNL1        0.1375
     15 F         138.0063  139.1955  167.2625 F       1  UNL1       -0.2045
     16 C         140.2932  140.4114  167.4669 C.2     1  UNL1        0.0452
     17 C         141.3360  141.0842  168.3094 C.2     1  UNL1        0.0691
     18 C         145.0520  142.0854  162.4769 C.3     1  UNL1        0.0739
     19 C         144.3223  142.8139  161.3875 C.3     1  UNL1        0.0392
     20 C         142.9165  142.4256  161.0368 C.3     1  UNL1        0.0998
     21 O         142.6695  144.3091  158.7148 O.2     1  UNL1       -0.2705
     22 C         141.7094  144.4045  159.8634 C.2     1  UNL1        0.2739
     23 C         140.6258  145.4416  159.8510 C.3     1  UNL1        0.2900
     24 O         139.6657  145.5371  160.9995 O.3     1  UNL1       -0.4643
     25 C         139.7892  144.5953  162.1606 C.ar    1  UNL1        0.1528
     26 C         138.8291  144.6907  163.3091 C.ar    1  UNL1        0.0382
     27 C         138.9527  143.7490  164.4700 C.ar    1  UNL1        0.0032
     28 C         140.0363  142.7118  164.4824 C.ar    1  UNL1        0.0015
     29 C         140.9963  142.6164  163.3339 C.ar    1  UNL1        0.0180
     30 C         140.8728  143.5581  162.1730 C.ar    1  UNL1        0.0881
     31 N         141.8329  143.4627  161.0244 N.am    1  UNL1       -0.2529
@<TRIPOS>BOND
     1    21    22    2
     2    22    23    1
     3    23    24    1
     4    24    25    1
     5    25    26   ar
     6    26    27   ar
     7    27    28   ar
     8    28    29   ar
     9    29    30   ar
    10    30    31    1
    11    31    20    1
    12    20    19    1
    13    19    18    1
    14    18     1    1
    15     1     2    1
    16     2     3    1
    17     3     4    1
    18     4     7    1
    19     7     8   am
    20     8     9    2
    21     8    10    1
    22    10    11    2
    23    11    12    1
    24    12    13    1
    25    13    14    2
    26    14    15    1
    27    14    16    1
    28    16    17    2
    29     4     5    1
    30     5     6    1
    31    31    22   am
    32     6     1    1
    33    30    25   ar
    34    17     7    1
    35    17    11    1
@<TRIPOS>MOLECULE
*****
 31 35 0 0 0
SMALL
GASTEIGER

@<TRIPOS>ATOM
      1 N         138.7442  140.1584  162.6724 N.3     1  UNL1       -0.2725
      2 C         140.2316  140.2464  162.4991 C.3     1  UNL1        0.0738
      3 C         141.1306  140.1979  163.6989 C.3     1  UNL1        0.0376
      4 C         140.5422  140.0615  165.0720 C.3     1  UNL1        0.0841
      5 C         139.0548  139.9736  165.2452 C.3     1  UNL1        0.0376
      6 C         138.1559  140.0220  164.0454 C.3     1  UNL1        0.0738
      7 N         141.4412  140.0131  166.2717 N.am    1  UNL1       -0.2422
      8 C         142.4929  138.9789  166.5442 C.2     1  UNL1        0.3310
      9 O         142.8304  137.8116  165.6647 O.2     1  UNL1       -0.2501
     10 N         143.1480  139.3170  167.8506 N.am    1  UNL1       -0.1647
     11 C         142.5011  140.5601  168.3855 C.2     1  UNL1        0.0708
     12 C         142.7363  141.3559  169.6350 C.3     1  UNL1        0.0729
     13 C         141.9167  142.5820  169.9089 C.2     1  UNL1        0.0097
     14 C         140.8617  143.0122  168.9330 C.2     1  UNL1        0.1375
     15 F         140.0420  144.2382  169.2068 F       1  UNL1       -0.2045
     16 C         140.6265  142.2164  167.6835 C.2     1  UNL1        0.0452
     17 C         141.4462  140.9903  167.4097 C.2     1  UNL1        0.0691
     18 C         137.8453  140.2069  161.4726 C.3     1  UNL1        0.0739
     19 C         138.2452  141.0054  160.2675 C.3     1  UNL1        0.0392
     20 C         138.2259  142.5044  160.3209 C.3     1  UNL1        0.0998
     21 O         140.8092  142.9891  158.8745 O.2     1  UNL1       -0.2705
     22 C         140.6305  143.4874  160.2781 C.2     1  UNL1        0.2739
     23 C         141.7434  144.2280  160.9584 C.3     1  UNL1        0.2900
     24 O         141.5647  144.7263  162.3619 O.3     1  UNL1       -0.4643
     25 C         140.2731  144.4839  163.0851 C.ar    1  UNL1        0.1528
     26 C         140.0944  144.9822  164.4886 C.ar    1  UNL1        0.0382
     27 C         138.8028  144.7398  165.2117 C.ar    1  UNL1        0.0032
     28 C         137.6899  143.9992  164.5314 C.ar    1  UNL1        0.0015
     29 C         137.8685  143.5009  163.1279 C.ar    1  UNL1        0.0180
     30 C         139.1601  143.7433  162.4048 C.ar    1  UNL1        0.0881
     31 N         139.3389  143.2450  161.0012 N.am    1  UNL1       -0.2529
@<TRIPOS>BOND
     1    21    22    2
     2    22    23    1
     3    23    24    1
     4    24    25    1
     5    25    26   ar
     6    26    27   ar
     7    27    28   ar
     8    28    29   ar
     9    29    30   ar
    10    30    31    1
    11    31    20    1
    12    20    19    1
    13    19    18    1
    14    18     1    1
    15     1     2    1
    16     2     3    1
    17     3     4    1
    18     4     7    1
    19     7     8   am
    20     8     9    2
    21     8    10    1
    22    10    11    2
    23    11    12    1
    24    12    13    1
    25    13    14    2
    26    14    15    1
    27    14    16    1
    28    16    17    2
    29     4     5    1
    30     5     6    1
    31    31    22   am
    32     6     1    1
    33    30    25   ar
    34    17     7    1
    35    17    11    1
@<TRIPOS>MOLECULE
*****
 31 35 0 0 0
SMALL
GASTEIGER

@<TRIPOS>ATOM
      1 N         138.4598  139.5601  164.1001 N.3     1  UNL1       -0.2725
      2 C         138.9097  140.9434  164.4661 C.3     1  UNL1        0.0738
      3 C         139.3411  141.2448  165.8708 C.3     1  UNL1        0.0376
      4 C         139.3225  140.1628  166.9095 C.3     1  UNL1        0.0841
      5 C         138.8726  138.7794  166.5435 C.3     1  UNL1        0.0376
      6 C         138.4412  138.4781  165.1388 C.3     1  UNL1        0.0738
      7 N         139.7538  140.4641  168.3142 N.am    1  UNL1       -0.2422
      8 C         139.0084  140.0976  169.5631 C.2     1  UNL1        0.3310
      9 O         137.7007  139.3655  169.6268 O.2     1  UNL1       -0.2501
     10 N         139.8001  140.5918  170.7374 N.am    1  UNL1       -0.1647
     11 C         141.0350  141.2637  170.2141 C.2     1  UNL1        0.0708
     12 C         142.1817  141.9372  170.9079 C.3     1  UNL1        0.0729
     13 C         143.2999  142.5318  170.1041 C.2     1  UNL1        0.0097
     14 C         143.2713  142.4528  168.6063 C.2     1  UNL1        0.1375
     15 F         144.3894  143.0474  167.8024 F       1  UNL1       -0.2045
     16 C         142.1245  141.7793  167.9126 C.2     1  UNL1        0.0452
     17 C         141.0063  141.1848  168.7165 C.2     1  UNL1        0.0691
     18 C         138.0285  139.2588  162.6954 C.3     1  UNL1        0.0739
     19 C         138.5968  138.0726  161.9745 C.3     1  UNL1        0.0392
     20 C         140.0720  137.9884  161.7155 C.3     1  UNL1        0.0998
     21 O         140.0988  140.2728  159.7711 O.2     1  UNL1       -0.2705
     22 C         140.9607  140.3218  160.9978 C.2     1  UNL1        0.2739
     23 C         141.8361  141.5130  161.2523 C.3     1  UNL1        0.2900
     24 O         142.6980  141.5621  162.4790 O.3     1  UNL1       -0.4643
     25 C         142.6846  140.4198  163.4512 C.ar    1  UNL1        0.1528
     26 C         143.5465  140.4688  164.6778 C.ar    1  UNL1        0.0382
     27 C         143.5330  139.3266  165.6500 C.ar    1  UNL1        0.0032
     28 C         142.6577  138.1354  165.3955 C.ar    1  UNL1        0.0015
     29 C         141.7958  138.0863  164.1688 C.ar    1  UNL1        0.0180
     30 C         141.8092  139.2286  163.1967 C.ar    1  UNL1        0.0881
     31 N         140.9473  139.1796  161.9700 N.am    1  UNL1       -0.2529
@<TRIPOS>BOND
     1    21    22    2
     2    22    23    1
     3    23    24    1
     4    24    25    1
     5    25    26   ar
     6    26    27   ar
     7    27    28   ar
     8    28    29   ar
     9    29    30   ar
    10    30    31    1
    11    31    20    1
    12    20    19    1
    13    19    18    1
    14    18     1    1
    15     1     2    1
    16     2     3    1
    17     3     4    1
    18     4     7    1
    19     7     8   am
    20     8     9    2
    21     8    10    1
    22    10    11    2
    23    11    12    1
    24    12    13    1
    25    13    14    2
    26    14    15    1
    27    14    16    1
    28    16    17    2
    29     4     5    1
    30     5     6    1
    31    31    22   am
    32     6     1    1
    33    30    25   ar
    34    17     7    1
    35    17    11    1
@<TRIPOS>MOLECULE
*****
 31 35 0 0 0
SMALL
GASTEIGER

@<TRIPOS>ATOM
      1 N         143.7597  142.5406  163.3184 N.3     1  UNL1       -0.2725
      2 C         143.0136  141.2405  163.3727 C.3     1  UNL1        0.0738
      3 C         142.6541  140.6369  164.6981 C.3     1  UNL1        0.0376
      4 C         143.0409  141.3334  165.9690 C.3     1  UNL1        0.0841
      5 C         143.7870  142.6336  165.9146 C.3     1  UNL1        0.0376
      6 C         144.1464  143.2372  164.5893 C.3     1  UNL1        0.0738
      7 N         142.6815  140.7299  167.2944 N.am    1  UNL1       -0.2422
      8 C         143.0003  139.3346  167.7432 C.2     1  UNL1        0.3310
      9 O         143.7345  138.2979  166.9456 O.2     1  UNL1       -0.2501
     10 N         142.4561  139.1580  169.1298 N.am    1  UNL1       -0.1647
     11 C         141.8008  140.4442  169.5379 C.2     1  UNL1        0.0708
     12 C         141.0954  140.8561  170.7959 C.3     1  UNL1        0.0729
     13 C         140.5292  142.2397  170.9195 C.2     1  UNL1        0.0097
     14 C         140.6685  143.2112  169.7851 C.2     1  UNL1        0.1375
     15 F         140.1024  144.5948  169.9087 F       1  UNL1       -0.2045
     16 C         141.3740  142.7991  168.5271 C.2     1  UNL1        0.0452
     17 C         141.9402  141.4156  168.4035 C.2     1  UNL1        0.0691
     18 C         144.1191  143.1442  161.9930 C.3     1  UNL1        0.0739
     19 C         143.1142  143.1613  160.8795 C.3     1  UNL1        0.0392
     20 C         142.0096  144.1762  160.8817 C.3     1  UNL1        0.0998
     21 O         140.6729  142.9510  158.4916 O.2     1  UNL1       -0.2705
     22 C         139.9121  143.1164  159.7738 C.2     1  UNL1        0.2739
     23 C         138.4830  142.6692  159.8608 C.3     1  UNL1        0.2900
     24 O         137.7221  142.8346  161.1429 O.3     1  UNL1       -0.4643
     25 C         138.3905  143.4472  162.3380 C.ar    1  UNL1        0.1528
     26 C         137.6296  143.6125  163.6201 C.ar    1  UNL1        0.0382
     27 C         138.2980  144.2251  164.8151 C.ar    1  UNL1        0.0032
     28 C         139.7271  144.6723  164.7280 C.ar    1  UNL1        0.0015
     29 C         140.4879  144.5069  163.4459 C.ar    1  UNL1        0.0180
     30 C         139.8196  143.8944  162.2509 C.ar    1  UNL1        0.0881
     31 N         140.5804  143.7290  160.9688 N.am    1  UNL1       -0.2529
@<TRIPOS>BOND
     1    21    22    2
     2    22    23    1
     3    23    24    1
     4    24    25    1
     5    25    26   ar
     6    26    27   ar
     7    27    28   ar
     8    28    29   ar
     9    29    30   ar
    10    30    31    1
    11    31    20    1
    12    20    19    1
    13    19    18    1
    14    18     1    1
    15     1     2    1
    16     2     3    1
    17     3     4    1
    18     4     7    1
    19     7     8   am
    20     8     9    2
    21     8    10    1
    22    10    11    2
    23    11    12    1
    24    12    13    1
    25    13    14    2
    26    14    15    1
    27    14    16    1
    28    16    17    2
    29     4     5    1
    30     5     6    1
    31    31    22   am
    32     6     1    1
    33    30    25   ar
    34    17     7    1
    35    17    11    1
@<TRIPOS>MOLECULE
*****
 31 35 0 0 0
SMALL
GASTEIGER

@<TRIPOS>ATOM
      1 N         142.0265  139.9157  162.8005 N.3     1  UNL1       -0.2725
      2 C         142.6270  139.0298  163.8515 C.3     1  UNL1        0.0738
      3 C         142.0719  139.0369  165.2451 C.3     1  UNL1        0.0376
      4 C         140.9164  139.9299  165.5876 C.3     1  UNL1        0.0841
      5 C         140.3159  140.8158  164.5365 C.3     1  UNL1        0.0376
      6 C         140.8710  140.8087  163.1430 C.3     1  UNL1        0.0738
      7 N         140.3614  139.9371  166.9810 N.am    1  UNL1       -0.2422
      8 C         138.9917  139.4796  167.3868 C.2     1  UNL1        0.3310
      9 O         137.9366  138.9346  166.4704 O.2     1  UNL1       -0.2501
     10 N         138.8623  139.6627  168.8700 N.am    1  UNL1       -0.1647
     11 C         140.1521  140.2335  169.3808 C.2     1  UNL1        0.0708
     12 C         140.6024  140.6206  170.7582 C.3     1  UNL1        0.0729
     13 C         141.9794  141.1774  170.9682 C.2     1  UNL1        0.0097
     14 C         142.9059  141.3469  169.8007 C.2     1  UNL1        0.1375
     15 F         144.2828  141.9037  170.0106 F       1  UNL1       -0.2045
     16 C         142.4554  140.9598  168.4233 C.2     1  UNL1        0.0452
     17 C         141.0785  140.4030  168.2134 C.2     1  UNL1        0.0691
     18 C         142.5816  139.9085  161.4071 C.3     1  UNL1        0.0739
     19 C         144.0130  140.2878  161.1679 C.3     1  UNL1        0.0392
     20 C         144.4281  141.7278  161.2323 C.3     1  UNL1        0.0998
     21 O         146.0266  141.3573  163.7439 O.2     1  UNL1       -0.2705
     22 C         144.9119  142.3603  163.7053 C.2     1  UNL1        0.2739
     23 C         144.5964  143.1781  164.9226 C.3     1  UNL1        0.2900
     24 O         143.4818  144.1811  164.8842 O.3     1  UNL1       -0.4643
     25 C         142.6826  144.3664  163.6284 C.ar    1  UNL1        0.1528
     26 C         141.5679  145.3694  163.5899 C.ar    1  UNL1        0.0382
     27 C         140.7688  145.5547  162.3342 C.ar    1  UNL1        0.0032
     28 C         141.0842  144.7370  161.1169 C.ar    1  UNL1        0.0015
     29 C         142.1988  143.7339  161.1553 C.ar    1  UNL1        0.0180
     30 C         142.9980  143.5487  162.4111 C.ar    1  UNL1        0.0881
     31 N         144.1127  142.5456  162.4496 N.am    1  UNL1       -0.2529
@<TRIPOS>BOND
     1    21    22    2
     2    22    23    1
     3    23    24    1
     4    24    25    1
     5    25    26   ar
     6    26    27   ar
     7    27    28   ar
     8    28    29   ar
     9    29    30   ar
    10    30    31    1
    11    31    20    1
    12    20    19    1
    13    19    18    1
    14    18     1    1
    15     1     2    1
    16     2     3    1
    17     3     4    1
    18     4     7    1
    19     7     8   am
    20     8     9    2
    21     8    10    1
    22    10    11    2
    23    11    12    1
    24    12    13    1
    25    13    14    2
    26    14    15    1
    27    14    16    1
    28    16    17    2
    29     4     5    1
    30     5     6    1
    31    31    22   am
    32     6     1    1
    33    30    25   ar
    34    17     7    1
    35    17    11    1
@<TRIPOS>MOLECULE
*****
 31 35 0 0 0
SMALL
GASTEIGER

@<TRIPOS>ATOM
      1 N         142.2009  141.7963  162.5444 N.3     1  UNL1       -0.2725
      2 C         141.8482  140.3566  162.7743 C.3     1  UNL1        0.0738
      3 C         141.2879  139.9237  164.0967 C.3     1  UNL1        0.0376
      4 C         141.0804  140.9304  165.1891 C.3     1  UNL1        0.0841
      5 C         141.4332  142.3701  164.9591 C.3     1  UNL1        0.0376
      6 C         141.9934  142.8030  163.6368 C.3     1  UNL1        0.0738
      7 N         140.5202  140.4975  166.5114 N.am    1  UNL1       -0.2422
      8 C         139.1899  139.8406  166.7329 C.2     1  UNL1        0.3310
      9 O         138.1864  139.5014  165.6709 O.2     1  UNL1       -0.2501
     10 N         139.0394  139.5826  168.2028 N.am    1  UNL1       -0.1647
     11 C         140.2766  140.0799  168.8899 C.2     1  UNL1        0.0708
     12 C         140.6880  140.0909  170.3323 C.3     1  UNL1        0.0729
     13 C         142.0147  140.6674  170.7294 C.2     1  UNL1        0.0097
     14 C         142.9299  141.2329  169.6840 C.2     1  UNL1        0.1375
     15 F         144.2566  141.8094  170.0811 F       1  UNL1       -0.2045
     16 C         142.5184  141.2218  168.2416 C.2     1  UNL1        0.0452
     17 C         141.1918  140.6453  167.8445 C.2     1  UNL1        0.0691
     18 C         142.7612  142.2292  161.2220 C.3     1  UNL1        0.0739
     19 C         142.0078  141.9404  159.9575 C.3     1  UNL1        0.0392
     20 C         140.6869  142.6043  159.7031 C.3     1  UNL1        0.0998
     21 O         141.6295  145.4477  159.5396 O.2     1  UNL1       -0.2705
     22 C         140.6336  145.0467  160.5872 C.2     1  UNL1        0.2739
     23 C         140.1089  146.0675  161.5530 C.3     1  UNL1        0.2900
     24 O         139.1130  145.6666  162.6006 O.3     1  UNL1       -0.4643
     25 C         138.6417  144.2449  162.6824 C.ar    1  UNL1        0.1528
     26 C         137.6458  143.8440  163.7299 C.ar    1  UNL1        0.0382
     27 C         137.1746  142.4223  163.8117 C.ar    1  UNL1        0.0032
     28 C         137.6992  141.4016  162.8459 C.ar    1  UNL1        0.0015
     29 C         138.6951  141.8024  161.7983 C.ar    1  UNL1        0.0180
     30 C         139.1664  143.2241  161.7166 C.ar    1  UNL1        0.0881
     31 N         140.1623  143.6251  160.6690 N.am    1  UNL1       -0.2529
@<TRIPOS>BOND
     1    21    22    2
     2    22    23    1
     3    23    24    1
     4    24    25    1
     5    25    26   ar
     6    26    27   ar
     7    27    28   ar
     8    28    29   ar
     9    29    30   ar
    10    30    31    1
    11    31    20    1
    12    20    19    1
    13    19    18    1
    14    18     1    1
    15     1     2    1
    16     2     3    1
    17     3     4    1
    18     4     7    1
    19     7     8   am
    20     8     9    2
    21     8    10    1
    22    10    11    2
    23    11    12    1
    24    12    13    1
    25    13    14    2
    26    14    15    1
    27    14    16    1
    28    16    17    2
    29     4     5    1
    30     5     6    1
    31    31    22   am
    32     6     1    1
    33    30    25   ar
    34    17     7    1
    35    17    11    1
