@<TRIPOS>MOLECULE
*****
 34 35 0 0 0
SMALL
GASTEIGER

@<TRIPOS>ATOM
      1 C         143.0733  138.5265  164.3145 C.ar    1  UNL1        0.0448
      2 C         144.0475  139.3566  163.5322 C.ar    1  UNL1       -0.0088
      3 C         143.8448  139.5626  162.0603 C.ar    1  UNL1        0.0014
      4 C         142.6680  138.9386  161.3707 C.ar    1  UNL1        0.0528
      5 C         141.6939  138.1085  162.1529 C.ar    1  UNL1        0.0014
      6 C         141.8966  137.9025  163.6248 C.ar    1  UNL1       -0.0088
      7 N         143.0276  139.1629  168.2315 N.am    1  UNL1       -0.1579
      8 C         142.8249  139.3689  166.7596 C.2     1  UNL1        0.3686
      9 O         142.1711  140.6235  166.2609 O.2     1  UNL1       -0.2332
     10 N         143.2760  138.3205  165.7864 N.am    1  UNL1       -0.2556
     11 H         143.4567  138.3395  168.5588 H       1  UNL1        0.2558
     12 H         143.7051  137.4971  166.1137 H       1  UNL1        0.1578
     13 C         142.5764  140.2114  169.2047 C.2     1  UNL1        0.3790
     14 N         143.4231  140.5408  170.3983 N.pl3   1  UNL1       -0.1311
     15 H         143.1269  141.2290  171.0370 H       1  UNL1        0.3060
     16 N         141.2786  140.9305  168.9843 N.pl3   1  UNL1       -0.2637
     17 H         141.2796  141.8845  168.7410 H       1  UNL1        0.2586
     18 C         139.1918  139.8089  167.9179 C.3     1  UNL1        0.0464
     19 C         139.9794  140.1962  169.1344 C.3     1  UNL1        0.1739
     20 C         142.4654  139.1446  159.8988 C.2     1  UNL1        0.2461
     21 O         141.6462  140.3019  159.4093 O.2     1  UNL1       -0.2701
     22 N         143.0819  138.1935  158.9164 N.am    1  UNL1       -0.2969
     23 H         143.6196  137.4339  159.2377 H       1  UNL1        0.1501
     24 C         142.8792  138.3995  157.4445 C.3     1  UNL1        0.1166
     25 C         142.6180  137.2229  156.5515 C.ar    1  UNL1       -0.0026
     26 C         143.7664  136.4442  155.9817 C.ar    1  UNL1       -0.0026
     27 C         143.5052  135.2676  155.0887 C.ar    1  UNL1       -0.0003
     28 C         142.0955  134.8698  154.7654 C.ar    1  UNL1       -0.0000
     29 C         140.9470  135.6486  155.3352 C.ar    1  UNL1       -0.0003
     30 C         141.2083  136.8251  156.2282 C.ar    1  UNL1       -0.0026
     31 C         145.2244  139.9807  164.2219 C.3     1  UNL1        0.0276
     32 C         145.6755  141.3584  163.8366 C.3     1  UNL1        0.0051
     33 C         140.9223  137.0723  164.4071 C.3     1  UNL1        0.0276
     34 C         139.6177  137.6655  164.8499 C.3     1  UNL1        0.0051
@<TRIPOS>BOND
     1    18    19    1
     2    19    16    1
     3    16    13    1
     4    13    14    2
     5    13     7    1
     6     7     8   am
     7     8     9    2
     8     8    10   am
     9    10     1    1
    10     1     2   ar
    11     2    31    1
    12    31    32    1
    13     2     3   ar
    14     3     4   ar
    15     4    20    1
    16    20    21    2
    17    20    22   am
    18    22    24    1
    19    24    25    1
    20    25    26   ar
    21    26    27   ar
    22    27    28   ar
    23    28    29   ar
    24    29    30   ar
    25     4     5   ar
    26     5     6   ar
    27     6    33    1
    28    33    34    1
    29     6     1   ar
    30    30    25   ar
    31    16    17    1
    32    14    15    1
    33     7    11    1
    34    10    12    1
    35    22    23    1
@<TRIPOS>MOLECULE
*****
 34 35 0 0 0
SMALL
GASTEIGER

@<TRIPOS>ATOM
      1 C         143.1806  138.4947  164.2903 C.ar    1  UNL1        0.0448
      2 C         142.0433  137.8343  163.5689 C.ar    1  UNL1       -0.0088
      3 C         141.9088  137.9860  162.0827 C.ar    1  UNL1        0.0014
      4 C         142.9114  138.7982  161.3179 C.ar    1  UNL1        0.0528
      5 C         144.0487  139.4586  162.0393 C.ar    1  UNL1        0.0014
      6 C         144.1833  139.3068  163.5255 C.ar    1  UNL1       -0.0088
      7 N         142.9944  139.2926  168.1734 N.am    1  UNL1       -0.1579
      8 C         142.8598  139.4444  166.6872 C.2     1  UNL1        0.3686
      9 O         142.2698  140.6977  166.1116 O.2     1  UNL1       -0.2332
     10 N         143.3152  138.3429  165.7765 N.am    1  UNL1       -0.2556
     11 H         143.3816  138.4701  168.5512 H       1  UNL1        0.2558
     12 H         143.7024  137.5204  166.1543 H       1  UNL1        0.1578
     13 C         142.5390  140.3942  169.0841 C.2     1  UNL1        0.3790
     14 N         143.4238  140.8555  170.2040 N.pl3   1  UNL1       -0.1311
     15 H         143.1249  141.5785  170.8016 H       1  UNL1        0.3060
     16 N         141.1987  141.0344  168.8748 N.pl3   1  UNL1       -0.2637
     17 H         141.1386  141.9963  168.6740 H       1  UNL1        0.2586
     18 C         139.2285  139.7916  167.7243 C.3     1  UNL1        0.0464
     19 C         139.9500  140.2089  168.9714 C.3     1  UNL1        0.1739
     20 C         142.7769  138.9499  159.8317 C.2     1  UNL1        0.2461
     21 O         143.8611  139.6253  159.0455 O.2     1  UNL1       -0.2701
     22 N         141.5580  138.4263  159.1316 N.am    1  UNL1       -0.2969
     23 H         140.8463  137.9830  159.6476 H       1  UNL1        0.1501
     24 C         141.4234  138.5780  157.6454 C.3     1  UNL1        0.1166
     25 C         141.9060  137.4891  156.7335 C.ar    1  UNL1       -0.0026
     26 C         143.3722  137.3389  156.4551 C.ar    1  UNL1       -0.0026
     27 C         143.8548  136.2499  155.5433 C.ar    1  UNL1       -0.0003
     28 C         142.8711  135.3112  154.9099 C.ar    1  UNL1       -0.0000
     29 C         141.4048  135.4615  155.1884 C.ar    1  UNL1       -0.0003
     30 C         140.9223  136.5504  156.1002 C.ar    1  UNL1       -0.0026
     31 C         141.0406  137.0221  164.3338 C.3     1  UNL1        0.0276
     32 C         139.7123  137.6177  164.6957 C.3     1  UNL1        0.0051
     33 C         145.3207  139.9672  164.2469 C.3     1  UNL1        0.0276
     34 C         145.7199  141.3692  163.8933 C.3     1  UNL1        0.0051
@<TRIPOS>BOND
     1    18    19    1
     2    19    16    1
     3    16    13    1
     4    13    14    2
     5    13     7    1
     6     7     8   am
     7     8     9    2
     8     8    10   am
     9    10     1    1
    10     1     2   ar
    11     2    31    1
    12    31    32    1
    13     2     3   ar
    14     3     4   ar
    15     4    20    1
    16    20    21    2
    17    20    22   am
    18    22    24    1
    19    24    25    1
    20    25    26   ar
    21    26    27   ar
    22    27    28   ar
    23    28    29   ar
    24    29    30   ar
    25     4     5   ar
    26     5     6   ar
    27     6    33    1
    28    33    34    1
    29     6     1   ar
    30    30    25   ar
    31    16    17    1
    32    14    15    1
    33     7    11    1
    34    10    12    1
    35    22    23    1
@<TRIPOS>MOLECULE
*****
 34 35 0 0 0
SMALL
GASTEIGER

@<TRIPOS>ATOM
      1 C         143.1911  138.6551  164.1784 C.ar    1  UNL1        0.0448
      2 C         144.1206  139.5905  163.4635 C.ar    1  UNL1       -0.0088
      3 C         143.9084  139.8928  162.0097 C.ar    1  UNL1        0.0014
      4 C         142.7668  139.2599  161.2708 C.ar    1  UNL1        0.0528
      5 C         141.8373  138.3245  161.9857 C.ar    1  UNL1        0.0014
      6 C         142.0495  138.0221  163.4395 C.ar    1  UNL1       -0.0088
      7 N         143.0447  138.9609  168.1325 N.am    1  UNL1       -0.1579
      8 C         142.8325  139.2633  166.6787 C.2     1  UNL1        0.3686
      9 O         142.0495  140.4762  166.2714 O.2     1  UNL1       -0.2332
     10 N         143.4033  138.3528  165.6322 N.am    1  UNL1       -0.2556
     11 H         143.5586  138.1648  168.3999 H       1  UNL1        0.2558
     12 H         143.9172  137.5567  165.8996 H       1  UNL1        0.1578
     13 C         142.4739  139.8715  169.1790 C.2     1  UNL1        0.3790
     14 N         142.8228  141.3303  169.1750 N.pl3   1  UNL1       -0.1311
     15 H         142.4481  141.9279  169.8619 H       1  UNL1        0.3060
     16 N         141.5542  139.3231  170.2295 N.pl3   1  UNL1       -0.2637
     17 H         141.7440  138.4499  170.6427 H       1  UNL1        0.2586
     18 C         139.2766  140.4305  169.6495 C.3     1  UNL1        0.0464
     19 C         140.3454  140.1052  170.6504 C.3     1  UNL1        0.1739
     20 C         142.5546  139.5622  159.8170 C.2     1  UNL1        0.2461
     21 O         141.6275  140.6683  159.4085 O.2     1  UNL1       -0.2701
     22 N         143.2696  138.7585  158.7717 N.am    1  UNL1       -0.2969
     23 H         143.8781  138.0325  159.0397 H       1  UNL1        0.1501
     24 C         143.0574  139.0608  157.3178 C.3     1  UNL1        0.1166
     25 C         144.1137  139.7900  156.5415 C.ar    1  UNL1       -0.0026
     26 C         144.9059  140.8825  157.1963 C.ar    1  UNL1       -0.0026
     27 C         145.9622  141.6117  156.4200 C.ar    1  UNL1       -0.0003
     28 C         146.2263  141.2483  154.9889 C.ar    1  UNL1       -0.0000
     29 C         145.4341  140.1557  154.3340 C.ar    1  UNL1       -0.0003
     30 C         144.3778  139.4266  155.1104 C.ar    1  UNL1       -0.0026
     31 C         145.2623  140.2235  164.2024 C.3     1  UNL1        0.0276
     32 C         145.7873  141.5600  163.7686 C.3     1  UNL1        0.0051
     33 C         141.1200  137.0867  164.1545 C.3     1  UNL1        0.0276
     34 C         139.8943  137.6214  164.8341 C.3     1  UNL1        0.0051
@<TRIPOS>BOND
     1    18    19    1
     2    19    16    1
     3    16    13    1
     4    13    14    2
     5    13     7    1
     6     7     8   am
     7     8     9    2
     8     8    10   am
     9    10     1    1
    10     1     2   ar
    11     2    31    1
    12    31    32    1
    13     2     3   ar
    14     3     4   ar
    15     4    20    1
    16    20    21    2
    17    20    22   am
    18    22    24    1
    19    24    25    1
    20    25    26   ar
    21    26    27   ar
    22    27    28   ar
    23    28    29   ar
    24    29    30   ar
    25     4     5   ar
    26     5     6   ar
    27     6    33    1
    28    33    34    1
    29     6     1   ar
    30    30    25   ar
    31    16    17    1
    32    14    15    1
    33     7    11    1
    34    10    12    1
    35    22    23    1
@<TRIPOS>MOLECULE
*****
 34 35 0 0 0
SMALL
GASTEIGER

@<TRIPOS>ATOM
      1 C         143.1543  138.5818  164.2900 C.ar    1  UNL1        0.0448
      2 C         144.1380  139.4288  163.5384 C.ar    1  UNL1       -0.0088
      3 C         143.9915  139.6125  162.0569 C.ar    1  UNL1        0.0014
      4 C         142.8613  138.9493  161.3270 C.ar    1  UNL1        0.0528
      5 C         141.8776  138.1024  162.0786 C.ar    1  UNL1        0.0014
      6 C         142.0240  137.9187  163.5601 C.ar    1  UNL1       -0.0088
      7 N         143.0053  139.2986  168.1905 N.am    1  UNL1       -0.1579
      8 C         142.8588  139.4824  166.7090 C.2     1  UNL1        0.3686
      9 O         142.2703  140.7504  166.1651 O.2     1  UNL1       -0.2332
     10 N         143.3008  138.3981  165.7715 N.am    1  UNL1       -0.2556
     11 H         143.3915  138.4664  168.5475 H       1  UNL1        0.2558
     12 H         143.6870  137.5659  166.1285 H       1  UNL1        0.1578
     13 C         142.5633  140.3830  169.1280 C.2     1  UNL1        0.3790
     14 N         143.3890  140.7125  170.3362 N.pl3   1  UNL1       -0.1311
     15 H         143.0989  141.4241  170.9515 H       1  UNL1        0.3060
     16 N         141.2956  141.1377  168.8574 N.pl3   1  UNL1       -0.2637
     17 H         140.4658  140.6490  168.6530 H       1  UNL1        0.2586
     18 C         140.3686  143.3598  169.8335 C.3     1  UNL1        0.0464
     19 C         141.2922  142.6371  168.8983 C.3     1  UNL1        0.1739
     20 C         142.7148  139.1330  159.8455 C.2     1  UNL1        0.2461
     21 O         141.6943  138.3362  159.0882 O.2     1  UNL1       -0.2701
     22 N         143.5888  140.1136  159.1214 N.am    1  UNL1       -0.2969
     23 H         144.2586  140.6367  159.6184 H       1  UNL1        0.1501
     24 C         143.4423  140.2974  157.6399 C.3     1  UNL1        0.1166
     25 C         144.6076  140.7741  156.8244 C.ar    1  UNL1       -0.0026
     26 C         144.9073  140.1364  155.5003 C.ar    1  UNL1       -0.0026
     27 C         146.0726  140.6131  154.6848 C.ar    1  UNL1       -0.0003
     28 C         146.9381  141.7276  155.1935 C.ar    1  UNL1       -0.0000
     29 C         146.6383  142.3654  156.5178 C.ar    1  UNL1       -0.0003
     30 C         145.4731  141.8886  157.3332 C.ar    1  UNL1       -0.0026
     31 C         145.2683  140.0920  164.2682 C.3     1  UNL1        0.0276
     32 C         145.7608  141.4375  163.8243 C.3     1  UNL1        0.0051
     33 C         141.0402  137.0717  164.3117 C.3     1  UNL1        0.0276
     34 C         139.7693  137.6781  164.8283 C.3     1  UNL1        0.0051
@<TRIPOS>BOND
     1    18    19    1
     2    19    16    1
     3    16    13    1
     4    13    14    2
     5    13     7    1
     6     7     8   am
     7     8     9    2
     8     8    10   am
     9    10     1    1
    10     1     2   ar
    11     2    31    1
    12    31    32    1
    13     2     3   ar
    14     3     4   ar
    15     4    20    1
    16    20    21    2
    17    20    22   am
    18    22    24    1
    19    24    25    1
    20    25    26   ar
    21    26    27   ar
    22    27    28   ar
    23    28    29   ar
    24    29    30   ar
    25     4     5   ar
    26     5     6   ar
    27     6    33    1
    28    33    34    1
    29     6     1   ar
    30    30    25   ar
    31    16    17    1
    32    14    15    1
    33     7    11    1
    34    10    12    1
    35    22    23    1
@<TRIPOS>MOLECULE
*****
 34 35 0 0 0
SMALL
GASTEIGER

@<TRIPOS>ATOM
      1 C         141.6590  140.9419  165.3170 C.ar    1  UNL1        0.0448
      2 C         142.5613  141.9285  164.6369 C.ar    1  UNL1       -0.0088
      3 C         142.0189  142.8249  163.5635 C.ar    1  UNL1        0.0014
      4 C         140.5743  142.7347  163.1701 C.ar    1  UNL1        0.0528
      5 C         139.6720  141.7481  163.8501 C.ar    1  UNL1        0.0014
      6 C         140.2144  140.8517  164.9235 C.ar    1  UNL1       -0.0088
      7 N         142.7015  139.5861  168.8982 N.am    1  UNL1       -0.1579
      8 C         142.1591  140.4825  167.8247 C.2     1  UNL1        0.3686
      9 O         141.5745  141.8160  168.1856 O.2     1  UNL1       -0.2332
     10 N         142.2014  140.0455  166.3904 N.am    1  UNL1       -0.2556
     11 H         143.0852  138.7109  168.6613 H       1  UNL1        0.2558
     12 H         142.5851  139.1703  166.1536 H       1  UNL1        0.1578
     13 C         142.6593  140.0232  170.3325 C.2     1  UNL1        0.3790
     14 N         143.8244  139.7460  171.2356 N.pl3   1  UNL1       -0.1311
     15 H         143.7966  140.0329  172.1770 H       1  UNL1        0.3060
     16 N         141.4519  140.7374  170.8636 N.pl3   1  UNL1       -0.2637
     17 H         141.5332  141.6595  171.1988 H       1  UNL1        0.2586
     18 C         139.0632  140.4264  169.8901 C.3     1  UNL1        0.0464
     19 C         140.1205  140.0467  170.8841 C.3     1  UNL1        0.1739
     20 C         140.0319  143.6311  162.0966 C.2     1  UNL1        0.2461
     21 O         138.5641  143.6281  161.7877 O.2     1  UNL1       -0.2701
     22 N         140.9573  144.5305  161.3321 N.am    1  UNL1       -0.2969
     23 H         141.9207  144.5325  161.5348 H       1  UNL1        0.1501
     24 C         140.4149  145.4269  160.2586 C.3     1  UNL1        0.1166
     25 C         140.6323  145.0841  158.8145 C.ar    1  UNL1       -0.0026
     26 C         139.8343  143.9862  158.1760 C.ar    1  UNL1       -0.0026
     27 C         140.0516  143.6434  156.7319 C.ar    1  UNL1       -0.0003
     28 C         141.0670  144.3985  155.9264 C.ar    1  UNL1       -0.0000
     29 C         141.8650  145.4965  156.5650 C.ar    1  UNL1       -0.0003
     30 C         141.6476  145.8392  158.0090 C.ar    1  UNL1       -0.0026
     31 C         144.0060  142.0187  165.0303 C.3     1  UNL1        0.0276
     32 C         144.5475  143.2920  165.6096 C.3     1  UNL1        0.0051
     33 C         139.3120  139.8651  165.6036 C.3     1  UNL1        0.0276
     34 C         139.1339  138.4913  165.0284 C.3     1  UNL1        0.0051
@<TRIPOS>BOND
     1    18    19    1
     2    19    16    1
     3    16    13    1
     4    13    14    2
     5    13     7    1
     6     7     8   am
     7     8     9    2
     8     8    10   am
     9    10     1    1
    10     1     2   ar
    11     2    31    1
    12    31    32    1
    13     2     3   ar
    14     3     4   ar
    15     4    20    1
    16    20    21    2
    17    20    22   am
    18    22    24    1
    19    24    25    1
    20    25    26   ar
    21    26    27   ar
    22    27    28   ar
    23    28    29   ar
    24    29    30   ar
    25     4     5   ar
    26     5     6   ar
    27     6    33    1
    28    33    34    1
    29     6     1   ar
    30    30    25   ar
    31    16    17    1
    32    14    15    1
    33     7    11    1
    34    10    12    1
    35    22    23    1
@<TRIPOS>MOLECULE
*****
 34 35 0 0 0
SMALL
GASTEIGER

@<TRIPOS>ATOM
      1 C         143.9552  143.3006  163.9045 C.ar    1  UNL1        0.0448
      2 C         144.8090  142.3084  163.1721 C.ar    1  UNL1       -0.0088
      3 C         144.6916  142.1728  161.6829 C.ar    1  UNL1        0.0014
      4 C         143.7204  143.0294  160.9261 C.ar    1  UNL1        0.0528
      5 C         142.8666  144.0217  161.6584 C.ar    1  UNL1        0.0014
      6 C         142.9840  144.1572  163.1477 C.ar    1  UNL1       -0.0088
      7 N         143.4723  142.6097  167.7826 N.am    1  UNL1       -0.1579
      8 C         143.3549  142.4741  166.2934 C.2     1  UNL1        0.3686
      9 O         142.5197  141.3764  165.7037 O.2     1  UNL1       -0.2332
     10 N         144.0726  143.4362  165.3938 N.am    1  UNL1       -0.2556
     11 H         144.0204  143.3302  168.1696 H       1  UNL1        0.2558
     12 H         144.6207  144.1566  165.7808 H       1  UNL1        0.1578
     13 C         142.7545  141.6476  168.6822 C.2     1  UNL1        0.3790
     14 N         143.3472  141.2770  170.0094 N.pl3   1  UNL1       -0.1311
     15 H         142.8761  140.6456  170.5998 H       1  UNL1        0.3060
     16 N         141.4441  141.0561  168.2546 N.pl3   1  UNL1       -0.2637
     17 H         141.1495  141.1370  167.3187 H       1  UNL1        0.2586
     18 C         139.4867  141.0796  169.9628 C.3     1  UNL1        0.0464
     19 C         140.5825  140.3412  169.2529 C.3     1  UNL1        0.1739
     20 C         143.6030  142.8938  159.4368 C.2     1  UNL1        0.2461
     21 O         143.0401  144.0212  158.6231 O.2     1  UNL1       -0.2701
     22 N         144.0484  141.6308  158.7613 N.am    1  UNL1       -0.2969
     23 H         144.4178  140.8909  159.2953 H       1  UNL1        0.1501
     24 C         143.9310  141.4953  157.2720 C.3     1  UNL1        0.1166
     25 C         145.1508  141.6247  156.4087 C.ar    1  UNL1       -0.0026
     26 C         145.1503  141.0581  155.0199 C.ar    1  UNL1       -0.0026
     27 C         146.3701  141.1875  154.1565 C.ar    1  UNL1       -0.0003
     28 C         147.5904  141.8837  154.6820 C.ar    1  UNL1       -0.0000
     29 C         147.5909  142.4505  156.0709 C.ar    1  UNL1       -0.0003
     30 C         146.3711  142.3209  156.9342 C.ar    1  UNL1       -0.0026
     31 C         145.7802  141.4516  163.9290 C.3     1  UNL1        0.0276
     32 C         145.4213  140.0369  164.2747 C.3     1  UNL1        0.0051
     33 C         142.1301  145.1496  163.8801 C.3     1  UNL1        0.0276
     34 C         140.6963  144.8276  164.1807 C.3     1  UNL1        0.0051
@<TRIPOS>BOND
     1    18    19    1
     2    19    16    1
     3    16    13    1
     4    13    14    2
     5    13     7    1
     6     7     8   am
     7     8     9    2
     8     8    10   am
     9    10     1    1
    10     1     2   ar
    11     2    31    1
    12    31    32    1
    13     2     3   ar
    14     3     4   ar
    15     4    20    1
    16    20    21    2
    17    20    22   am
    18    22    24    1
    19    24    25    1
    20    25    26   ar
    21    26    27   ar
    22    27    28   ar
    23    28    29   ar
    24    29    30   ar
    25     4     5   ar
    26     5     6   ar
    27     6    33    1
    28    33    34    1
    29     6     1   ar
    30    30    25   ar
    31    16    17    1
    32    14    15    1
    33     7    11    1
    34    10    12    1
    35    22    23    1
@<TRIPOS>MOLECULE
*****
 34 35 0 0 0
SMALL
GASTEIGER

@<TRIPOS>ATOM
      1 C         143.2480  138.6500  164.2588 C.ar    1  UNL1        0.0448
      2 C         142.0985  138.0286  163.5224 C.ar    1  UNL1       -0.0088
      3 C         141.8828  138.3378  162.0706 C.ar    1  UNL1        0.0014
      4 C         142.8166  139.2683  161.3551 C.ar    1  UNL1        0.0528
      5 C         143.9662  139.8897  162.0915 C.ar    1  UNL1        0.0014
      6 C         144.1819  139.5806  163.5433 C.ar    1  UNL1       -0.0088
      7 N         143.0700  138.9098  168.2149 N.am    1  UNL1       -0.1579
      8 C         142.8543  139.2190  166.7630 C.2     1  UNL1        0.3686
      9 O         142.0292  140.4063  166.3636 O.2     1  UNL1       -0.2332
     10 N         143.4637  138.3409  165.7107 N.am    1  UNL1       -0.2556
     11 H         143.6116  138.1306  168.4771 H       1  UNL1        0.2558
     12 H         144.0053  137.5617  165.9729 H       1  UNL1        0.1578
     13 C         142.4606  139.7880  169.2673 C.2     1  UNL1        0.3790
     14 N         140.9696  139.8539  169.4179 N.pl3   1  UNL1       -0.1311
     15 H         140.5696  140.4303  170.1086 H       1  UNL1        0.3060
     16 N         143.3421  140.6001  170.1691 N.pl3   1  UNL1       -0.2637
     17 H         143.7301  140.1917  170.9765 H       1  UNL1        0.2586
     18 C         142.8067  143.1264  170.4538 C.3     1  UNL1        0.0464
     19 C         143.6326  142.0346  169.8408 C.3     1  UNL1        0.1739
     20 C         142.6009  139.5775  159.9032 C.2     1  UNL1        0.2461
     21 O         143.6235  139.1613  158.8878 O.2     1  UNL1       -0.2701
     22 N         141.3627  140.3028  159.4668 N.am    1  UNL1       -0.2969
     23 H         140.6915  140.5760  160.1332 H       1  UNL1        0.1501
     24 C         141.1470  140.6120  158.0149 C.3     1  UNL1        0.1166
     25 C         139.8396  141.1874  157.5568 C.ar    1  UNL1       -0.0026
     26 C         139.8058  142.5229  156.8748 C.ar    1  UNL1       -0.0026
     27 C         138.4984  143.0982  156.4166 C.ar    1  UNL1       -0.0003
     28 C         137.2249  142.3380  156.6406 C.ar    1  UNL1       -0.0000
     29 C         137.2587  141.0024  157.3227 C.ar    1  UNL1       -0.0003
     30 C         138.5661  140.4271  157.7808 C.ar    1  UNL1       -0.0026
     31 C         141.1646  137.0980  164.2379 C.3     1  UNL1        0.0276
     32 C         139.8878  137.6221  164.8253 C.3     1  UNL1        0.0051
     33 C         145.3315  140.2021  164.2797 C.3     1  UNL1        0.0276
     34 C         145.8156  141.5694  163.8977 C.3     1  UNL1        0.0051
@<TRIPOS>BOND
     1    18    19    1
     2    19    16    1
     3    16    13    1
     4    13    14    2
     5    13     7    1
     6     7     8   am
     7     8     9    2
     8     8    10   am
     9    10     1    1
    10     1     2   ar
    11     2    31    1
    12    31    32    1
    13     2     3   ar
    14     3     4   ar
    15     4    20    1
    16    20    21    2
    17    20    22   am
    18    22    24    1
    19    24    25    1
    20    25    26   ar
    21    26    27   ar
    22    27    28   ar
    23    28    29   ar
    24    29    30   ar
    25     4     5   ar
    26     5     6   ar
    27     6    33    1
    28    33    34    1
    29     6     1   ar
    30    30    25   ar
    31    16    17    1
    32    14    15    1
    33     7    11    1
    34    10    12    1
    35    22    23    1
@<TRIPOS>MOLECULE
*****
 34 35 0 0 0
SMALL
GASTEIGER

@<TRIPOS>ATOM
      1 C         138.2483  140.2585  163.9993 C.ar    1  UNL1        0.0448
      2 C         137.9124  141.6170  163.4595 C.ar    1  UNL1       -0.0088
      3 C         137.9457  141.8656  161.9806 C.ar    1  UNL1        0.0014
      4 C         138.3150  140.7558  161.0416 C.ar    1  UNL1        0.0528
      5 C         138.6510  139.3972  161.5815 C.ar    1  UNL1        0.0014
      6 C         138.6176  139.1486  163.0603 C.ar    1  UNL1       -0.0088
      7 N         139.4190  139.9653  167.7800 N.am    1  UNL1       -0.1579
      8 C         139.4523  140.2140  166.3012 C.2     1  UNL1        0.3686
      9 O         140.7231  140.6668  165.6452 O.2     1  UNL1       -0.2332
     10 N         138.2150  140.0098  165.4782 N.am    1  UNL1       -0.2556
     11 H         138.5850  139.6681  168.2105 H       1  UNL1        0.2558
     12 H         137.3810  139.7126  165.9087 H       1  UNL1        0.1578
     13 C         140.6564  140.1695  168.6030 C.2     1  UNL1        0.3790
     14 N         141.9840  139.6941  168.0918 N.pl3   1  UNL1       -0.1311
     15 H         142.7961  139.8281  168.6319 H       1  UNL1        0.3060
     16 N         140.5661  140.8492  169.9371 N.pl3   1  UNL1       -0.2637
     17 H         140.9162  140.4027  170.7417 H       1  UNL1        0.2586
     18 C         140.4166  143.3241  169.1612 C.3     1  UNL1        0.0464
     19 C         139.9425  142.2090  170.0454 C.3     1  UNL1        0.1739
     20 C         138.3484  141.0044  159.5627 C.2     1  UNL1        0.2461
     21 O         137.7501  140.0027  158.6201 O.2     1  UNL1       -0.2701
     22 N         138.9799  142.2548  159.0265 N.am    1  UNL1       -0.2969
     23 H         139.3726  142.9123  159.6452 H       1  UNL1        0.1501
     24 C         139.0133  142.5035  157.5476 C.3     1  UNL1        0.1166
     25 C         139.1974  143.8976  157.0255 C.ar    1  UNL1       -0.0026
     26 C         138.4659  144.3395  155.7928 C.ar    1  UNL1       -0.0026
     27 C         138.6501  145.7337  155.2707 C.ar    1  UNL1       -0.0003
     28 C         139.5658  146.6858  155.9812 C.ar    1  UNL1       -0.0000
     29 C         140.2974  146.2438  157.2139 C.ar    1  UNL1       -0.0003
     30 C         140.1132  144.8497  157.7360 C.ar    1  UNL1       -0.0026
     31 C         137.5431  142.7269  164.3985 C.3     1  UNL1        0.0276
     32 C         138.4441  143.9173  164.5439 C.3     1  UNL1        0.0051
     33 C         138.9536  137.7900  163.6002 C.3     1  UNL1        0.0276
     34 C         140.3784  137.4368  163.9085 C.3     1  UNL1        0.0051
@<TRIPOS>BOND
     1    18    19    1
     2    19    16    1
     3    16    13    1
     4    13    14    2
     5    13     7    1
     6     7     8   am
     7     8     9    2
     8     8    10   am
     9    10     1    1
    10     1     2   ar
    11     2    31    1
    12    31    32    1
    13     2     3   ar
    14     3     4   ar
    15     4    20    1
    16    20    21    2
    17    20    22   am
    18    22    24    1
    19    24    25    1
    20    25    26   ar
    21    26    27   ar
    22    27    28   ar
    23    28    29   ar
    24    29    30   ar
    25     4     5   ar
    26     5     6   ar
    27     6    33    1
    28    33    34    1
    29     6     1   ar
    30    30    25   ar
    31    16    17    1
    32    14    15    1
    33     7    11    1
    34    10    12    1
    35    22    23    1
@<TRIPOS>MOLECULE
*****
 34 35 0 0 0
SMALL
GASTEIGER

@<TRIPOS>ATOM
      1 C         138.1136  140.4629  163.8708 C.ar    1  UNL1        0.0448
      2 C         138.4630  139.4002  162.8715 C.ar    1  UNL1       -0.0088
      3 C         138.5459  139.7402  161.4130 C.ar    1  UNL1        0.0014
      4 C         138.2794  141.1430  160.9536 C.ar    1  UNL1        0.0528
      5 C         137.9301  142.2058  161.9528 C.ar    1  UNL1        0.0014
      6 C         137.8471  141.8657  163.4114 C.ar    1  UNL1       -0.0088
      7 N         139.1156  140.0546  167.6890 N.am    1  UNL1       -0.1579
      8 C         139.1985  140.3947  166.2304 C.2     1  UNL1        0.3686
      9 O         140.4495  141.0066  165.6730 O.2     1  UNL1       -0.2332
     10 N         138.0306  140.1228  165.3293 N.am    1  UNL1       -0.2556
     11 H         138.2946  139.6530  168.0549 H       1  UNL1        0.2558
     12 H         137.2096  139.7212  165.6952 H       1  UNL1        0.1578
     13 C         140.2836  140.3265  168.5901 C.2     1  UNL1        0.3790
     14 N         140.4447  139.5508  169.8638 N.pl3   1  UNL1       -0.1311
     15 H         141.2113  139.7293  170.4552 H       1  UNL1        0.3060
     16 N         141.2905  141.3740  168.2174 N.pl3   1  UNL1       -0.2637
     17 H         142.0707  141.1333  167.6675 H       1  UNL1        0.2586
     18 C         140.2049  143.0861  169.8424 C.3     1  UNL1        0.0464
     19 C         141.1085  142.7884  168.6827 C.3     1  UNL1        0.1739
     20 C         138.3624  141.4831  159.4950 C.2     1  UNL1        0.2461
     21 O         138.2424  142.9104  159.0497 O.2     1  UNL1       -0.2701
     22 N         138.5654  140.3959  158.4818 N.am    1  UNL1       -0.2969
     23 H         138.6441  139.4591  158.7740 H       1  UNL1        0.1501
     24 C         138.6483  140.7360  157.0232 C.3     1  UNL1        0.1166
     25 C         137.4613  140.5154  156.1330 C.ar    1  UNL1       -0.0026
     26 C         137.5465  139.5391  154.9975 C.ar    1  UNL1       -0.0026
     27 C         136.3595  139.3185  154.1072 C.ar    1  UNL1       -0.0003
     28 C         135.0873  140.0743  154.3526 C.ar    1  UNL1       -0.0000
     29 C         135.0021  141.0507  155.4882 C.ar    1  UNL1       -0.0003
     30 C         136.1891  141.2712  156.3783 C.ar    1  UNL1       -0.0026
     31 C         138.7294  137.9972  163.3309 C.3     1  UNL1        0.0276
     32 C         140.1370  137.5465  163.5868 C.3     1  UNL1        0.0051
     33 C         137.4977  142.9285  164.4106 C.3     1  UNL1        0.0276
     34 C         138.4042  144.1088  164.5980 C.3     1  UNL1        0.0051
@<TRIPOS>BOND
     1    18    19    1
     2    19    16    1
     3    16    13    1
     4    13    14    2
     5    13     7    1
     6     7     8   am
     7     8     9    2
     8     8    10   am
     9    10     1    1
    10     1     2   ar
    11     2    31    1
    12    31    32    1
    13     2     3   ar
    14     3     4   ar
    15     4    20    1
    16    20    21    2
    17    20    22   am
    18    22    24    1
    19    24    25    1
    20    25    26   ar
    21    26    27   ar
    22    27    28   ar
    23    28    29   ar
    24    29    30   ar
    25     4     5   ar
    26     5     6   ar
    27     6    33    1
    28    33    34    1
    29     6     1   ar
    30    30    25   ar
    31    16    17    1
    32    14    15    1
    33     7    11    1
    34    10    12    1
    35    22    23    1
