@<TRIPOS>MOLECULE
*****
 31 34 0 0 0
SMALL
GASTEIGER

@<TRIPOS>ATOM
      1 C         139.4229  139.3418  163.8720 C.ar    1  UNL1        0.0826
      2 C         138.2100  139.4951  163.0030 C.ar    1  UNL1        0.0193
      3 C         138.3234  139.3139  161.5184 C.ar    1  UNL1        0.0073
      4 C         139.6497  138.9794  160.9027 C.ar    1  UNL1        0.0691
      5 C         140.8626  138.8261  161.7717 C.ar    1  UNL1        0.0816
      6 N         140.7492  139.0073  163.2564 N.ar    1  UNL1       -0.2478
      7 C         142.0279  138.4956  160.8870 C.3     1  UNL1        0.1203
      8 C         143.4384  138.2578  161.3388 C.3     1  UNL1        0.0284
      9 N         141.5352  138.4447  159.4711 N.am    1  UNL1       -0.2485
     10 C         140.0654  138.7437  159.4808 C.2     1  UNL1        0.2542
     11 O         139.1686  138.7975  158.2796 O.2     1  UNL1       -0.2695
     12 C         140.1153  140.6516  167.5538 C.ar    1  UNL1        0.1916
     13 C         140.2287  140.4705  166.0691 C.ar    1  UNL1        0.0448
     14 C         139.3096  139.5229  165.3568 C.ar    1  UNL1        0.0400
     15 C         138.2771  138.7565  166.1292 C.ar    1  UNL1        0.1037
     16 N         138.1638  138.9376  167.6139 N.ar    1  UNL1       -0.2075
     17 C         139.0829  139.8852  168.3262 C.ar    1  UNL1        0.2601
     18 C         140.5624  142.9783  168.6199 C.3     1  UNL1        0.2527
     19 O         141.0344  141.5992  168.2661 O.3     1  UNL1       -0.4667
     20 O         138.9695  140.0663  169.8109 O.3     1  UNL1       -0.4541
     21 C         140.1600  139.8200  170.6896 C.3     1  UNL1        0.2543
     22 C         142.3665  138.1470  158.2585 C.ar    1  UNL1        0.0942
     23 C         143.1200  139.1513  157.4379 C.ar    1  UNL1        0.1365
     24 N         143.8093  138.4176  156.3258 N.ar    1  UNL1       -0.1660
     25 N         143.4818  136.9600  156.4591 N.ar    1  UNL1       -0.2393
     26 C         142.5899  136.7927  157.6537 C.ar    1  UNL1        0.1118
     27 C         143.9617  135.8623  155.5565 C.3     1  UNL1        0.2302
     28 C         143.3715  134.4878  155.6679 C.3     1  UNL1        0.4200
     29 F         142.7812  133.1133  155.7793 F       1  UNL1       -0.1679
     30 F         142.4548  134.7883  154.5193 F       1  UNL1       -0.1679
     31 F         144.2881  134.1872  156.8165 F       1  UNL1       -0.1679
@<TRIPOS>BOND
     1    18    19    1
     2    19    12    1
     3    12    13   ar
     4    13    14   ar
     5    14     1    1
     6     1     2   ar
     7     2     3   ar
     8     3     4   ar
     9     4     5   ar
    10     5     6   ar
    11     5     7    1
    12     7     8    1
    13     7     9    1
    14     9    22    1
    15    22    23   ar
    16    23    24   ar
    17    24    25   ar
    18    25    27    1
    19    27    28    1
    20    28    29    1
    21    28    30    1
    22    28    31    1
    23    25    26   ar
    24     9    10   am
    25    10    11    2
    26    14    15   ar
    27    15    16   ar
    28    16    17   ar
    29    17    20    1
    30    20    21    1
    31    17    12   ar
    32     6     1   ar
    33    26    22   ar
    34    10     4    1
@<TRIPOS>MOLECULE
*****
 31 34 0 0 0
SMALL
GASTEIGER

@<TRIPOS>ATOM
      1 C         141.2642  142.8498  164.5726 C.ar    1  UNL1        0.0826
      2 C         140.2587  143.9182  164.8845 C.ar    1  UNL1        0.0193
      3 C         139.8071  144.8603  163.8082 C.ar    1  UNL1        0.0073
      4 C         140.3610  144.7340  162.4200 C.ar    1  UNL1        0.0691
      5 C         141.3665  143.6656  162.1080 C.ar    1  UNL1        0.0816
      6 N         141.8181  142.7235  163.1843 N.ar    1  UNL1       -0.2478
      7 C         141.7334  143.7834  160.6584 C.3     1  UNL1        0.1203
      8 C         142.7080  142.9128  159.9220 C.3     1  UNL1        0.0284
      9 N         140.9546  144.9247  160.0744 N.am    1  UNL1       -0.2485
     10 C         140.1064  145.5122  161.1631 C.2     1  UNL1        0.2542
     11 O         139.1684  146.6739  161.0201 O.2     1  UNL1       -0.2695
     12 C         142.8564  141.4972  167.9469 C.ar    1  UNL1        0.1916
     13 C         142.4047  142.4394  166.8706 C.ar    1  UNL1        0.0448
     14 C         141.7159  141.9076  165.6489 C.ar    1  UNL1        0.0400
     15 C         141.4786  140.4336  165.5034 C.ar    1  UNL1        0.1037
     16 N         141.9302  139.4915  166.5796 N.ar    1  UNL1       -0.2075
     17 C         142.6191  140.0232  167.8014 C.ar    1  UNL1        0.2601
     18 C         142.7624  142.7817  170.2032 C.3     1  UNL1        0.2527
     19 O         143.5453  142.0289  169.1686 O.3     1  UNL1       -0.4667
     20 O         143.0707  139.0810  168.8776 O.3     1  UNL1       -0.4541
     21 C         142.2816  138.9592  170.1475 C.3     1  UNL1        0.2543
     22 C         141.0137  145.3957  158.6514 C.ar    1  UNL1        0.0942
     23 C         142.2605  145.6213  157.8485 C.ar    1  UNL1        0.1365
     24 N         141.8537  146.0889  156.4824 N.ar    1  UNL1       -0.1660
     25 N         140.3556  146.1522  156.4412 N.ar    1  UNL1       -0.2393
     26 C         139.8365  145.7238  157.7818 C.ar    1  UNL1        0.1118
     27 C         139.5228  146.5704  155.2659 C.3     1  UNL1        0.2302
     28 C         139.4600  148.0152  154.8674 C.3     1  UNL1        0.4200
     29 F         139.3971  149.4600  154.4690 F       1  UNL1       -0.1679
     30 F         138.6355  148.3149  156.0841 F       1  UNL1       -0.1679
     31 F         140.2845  147.7156  153.6507 F       1  UNL1       -0.1679
@<TRIPOS>BOND
     1    18    19    1
     2    19    12    1
     3    12    13   ar
     4    13    14   ar
     5    14     1    1
     6     1     2   ar
     7     2     3   ar
     8     3     4   ar
     9     4     5   ar
    10     5     6   ar
    11     5     7    1
    12     7     8    1
    13     7     9    1
    14     9    22    1
    15    22    23   ar
    16    23    24   ar
    17    24    25   ar
    18    25    27    1
    19    27    28    1
    20    28    29    1
    21    28    30    1
    22    28    31    1
    23    25    26   ar
    24     9    10   am
    25    10    11    2
    26    14    15   ar
    27    15    16   ar
    28    16    17   ar
    29    17    20    1
    30    20    21    1
    31    17    12   ar
    32     6     1   ar
    33    26    22   ar
    34    10     4    1
@<TRIPOS>MOLECULE
*****
 31 34 0 0 0
SMALL
GASTEIGER

@<TRIPOS>ATOM
      1 C         140.3752  142.9942  165.0397 C.ar    1  UNL1        0.0826
      2 C         139.4858  144.1975  165.1439 C.ar    1  UNL1        0.0193
      3 C         139.2826  145.0854  163.9521 C.ar    1  UNL1        0.0073
      4 C         139.9689  144.7700  162.6561 C.ar    1  UNL1        0.0691
      5 C         140.8583  143.5667  162.5519 C.ar    1  UNL1        0.0816
      6 N         141.0614  142.6788  163.7437 N.ar    1  UNL1       -0.2478
      7 C         141.3984  143.5092  161.1537 C.3     1  UNL1        0.1203
      8 C         142.3304  142.4669  160.6108 C.3     1  UNL1        0.0284
      9 N         140.8428  144.6770  160.3938 N.am    1  UNL1       -0.2485
     10 C         139.9593  145.4563  161.3223 C.2     1  UNL1        0.2542
     11 O         139.1996  146.7029  160.9776 O.2     1  UNL1       -0.2695
     12 C         139.7521  140.1847  167.7727 C.ar    1  UNL1        0.1916
     13 C         139.5490  141.0727  166.5809 C.ar    1  UNL1        0.0448
     14 C         140.5783  142.1062  166.2314 C.ar    1  UNL1        0.0400
     15 C         141.8110  142.2518  167.0737 C.ar    1  UNL1        0.1037
     16 N         142.0142  141.3639  168.2655 N.ar    1  UNL1       -0.2075
     17 C         140.9847  140.3304  168.6150 C.ar    1  UNL1        0.2601
     18 C         137.7520  138.6777  167.0813 C.3     1  UNL1        0.2527
     19 O         138.7227  139.1512  168.1221 O.3     1  UNL1       -0.4667
     20 O         141.1880  139.4425  169.8067 O.3     1  UNL1       -0.4541
     21 C         142.5202  138.7939  170.0403 C.3     1  UNL1        0.2543
     22 C         141.1217  145.0075  158.9574 C.ar    1  UNL1        0.0942
     23 C         142.3755  144.6756  158.2038 C.ar    1  UNL1        0.1365
     24 N         142.2244  145.1909  156.8032 N.ar    1  UNL1       -0.1660
     25 N         140.8774  145.8413  156.6913 N.ar    1  UNL1       -0.2393
     26 C         140.1959  145.7280  158.0228 C.ar    1  UNL1        0.1118
     27 C         140.3113  146.4910  155.4635 C.3     1  UNL1        0.2302
     28 C         138.8695  146.2868  155.1040 C.3     1  UNL1        0.4200
     29 F         137.4275  146.0824  154.7444 F       1  UNL1       -0.1679
     30 F         139.1322  144.8271  154.8795 F       1  UNL1       -0.1679
     31 F         138.6066  147.7463  155.3285 F       1  UNL1       -0.1679
@<TRIPOS>BOND
     1    18    19    1
     2    19    12    1
     3    12    13   ar
     4    13    14   ar
     5    14     1    1
     6     1     2   ar
     7     2     3   ar
     8     3     4   ar
     9     4     5   ar
    10     5     6   ar
    11     5     7    1
    12     7     8    1
    13     7     9    1
    14     9    22    1
    15    22    23   ar
    16    23    24   ar
    17    24    25   ar
    18    25    27    1
    19    27    28    1
    20    28    29    1
    21    28    30    1
    22    28    31    1
    23    25    26   ar
    24     9    10   am
    25    10    11    2
    26    14    15   ar
    27    15    16   ar
    28    16    17   ar
    29    17    20    1
    30    20    21    1
    31    17    12   ar
    32     6     1   ar
    33    26    22   ar
    34    10     4    1
@<TRIPOS>MOLECULE
*****
 31 34 0 0 0
SMALL
GASTEIGER

@<TRIPOS>ATOM
      1 C         140.7708  138.4473  161.0992 C.ar    1  UNL1        0.0826
      2 C         139.4083  138.0029  161.5418 C.ar    1  UNL1        0.0193
      3 C         139.0118  138.1233  162.9834 C.ar    1  UNL1        0.0073
      4 C         139.9778  138.6880  163.9824 C.ar    1  UNL1        0.0691
      5 C         141.3403  139.1324  163.5397 C.ar    1  UNL1        0.0816
      6 N         141.7368  139.0120  162.0981 N.ar    1  UNL1       -0.2478
      7 C         142.0740  139.6458  164.7430 C.3     1  UNL1        0.1203
      8 C         143.4715  140.1907  164.7574 C.3     1  UNL1        0.0284
      9 N         141.1650  139.5188  165.9294 N.am    1  UNL1       -0.2485
     10 C         139.8694  138.9268  165.4593 C.2     1  UNL1        0.2542
     11 O         138.6751  138.6264  166.3157 O.2     1  UNL1       -0.2695
     12 C         140.5179  138.2683  157.1426 C.ar    1  UNL1        0.1916
     13 C         140.1213  138.3886  158.5843 C.ar    1  UNL1        0.0448
     14 C         141.1673  138.3270  159.6575 C.ar    1  UNL1        0.0400
     15 C         142.6100  138.1450  159.2892 C.ar    1  UNL1        0.1037
     16 N         143.0066  138.0247  157.8476 N.ar    1  UNL1       -0.2075
     17 C         141.9605  138.0863  156.7743 C.ar    1  UNL1        0.2601
     18 C         139.0148  137.0709  155.3942 C.3     1  UNL1        0.2527
     19 O         139.4718  138.3300  156.0693 O.3     1  UNL1       -0.4667
     20 O         142.3571  137.9660  155.3327 O.3     1  UNL1       -0.4541
     21 C         142.9687  136.6932  154.8268 C.3     1  UNL1        0.2543
     22 C         141.4938  139.9143  167.3385 C.ar    1  UNL1        0.0942
     23 C         142.5926  139.3390  168.1822 C.ar    1  UNL1        0.1365
     24 N         142.5594  140.0238  169.5164 N.ar    1  UNL1       -0.1660
     25 N         141.4402  141.0222  169.4972 N.ar    1  UNL1       -0.2393
     26 C         140.7816  140.9546  168.1511 C.ar    1  UNL1        0.1118
     27 C         141.0484  141.9291  170.6259 C.3     1  UNL1        0.2302
     28 C         140.6307  143.3417  170.3426 C.3     1  UNL1        0.4200
     29 F         140.2130  144.7543  170.0593 F       1  UNL1       -0.1679
     30 F         139.2112  142.9886  170.6748 F       1  UNL1       -0.1679
     31 F         142.0501  143.6948  170.0104 F       1  UNL1       -0.1679
@<TRIPOS>BOND
     1    18    19    1
     2    19    12    1
     3    12    13   ar
     4    13    14   ar
     5    14     1    1
     6     1     2   ar
     7     2     3   ar
     8     3     4   ar
     9     4     5   ar
    10     5     6   ar
    11     5     7    1
    12     7     8    1
    13     7     9    1
    14     9    22    1
    15    22    23   ar
    16    23    24   ar
    17    24    25   ar
    18    25    27    1
    19    27    28    1
    20    28    29    1
    21    28    30    1
    22    28    31    1
    23    25    26   ar
    24     9    10   am
    25    10    11    2
    26    14    15   ar
    27    15    16   ar
    28    16    17   ar
    29    17    20    1
    30    20    21    1
    31    17    12   ar
    32     6     1   ar
    33    26    22   ar
    34    10     4    1
@<TRIPOS>MOLECULE
*****
 31 34 0 0 0
SMALL
GASTEIGER

@<TRIPOS>ATOM
      1 C         140.2024  138.7153  159.5931 C.ar    1  UNL1        0.0826
      2 C         139.1951  139.8176  159.4516 C.ar    1  UNL1        0.0193
      3 C         138.5355  140.3919  160.6703 C.ar    1  UNL1        0.0073
      4 C         138.8834  139.8638  162.0305 C.ar    1  UNL1        0.0691
      5 C         139.8907  138.7614  162.1720 C.ar    1  UNL1        0.0816
      6 N         140.5503  138.1872  160.9533 N.ar    1  UNL1       -0.2478
      7 C         140.0308  138.4462  163.6317 C.3     1  UNL1        0.1203
      8 C         140.9333  137.4060  164.2264 C.3     1  UNL1        0.0284
      9 N         139.1100  139.3536  164.3924 N.am    1  UNL1       -0.2485
     10 C         138.4009  140.2298  163.4028 C.2     1  UNL1        0.2542
     11 O         137.3872  141.2864  163.7283 O.2     1  UNL1       -0.2695
     12 C         140.6871  137.1110  155.9956 C.ar    1  UNL1        0.1916
     13 C         140.0275  137.6853  157.2143 C.ar    1  UNL1        0.0448
     14 C         140.8620  138.1410  158.3744 C.ar    1  UNL1        0.0400
     15 C         142.3562  138.0226  158.3158 C.ar    1  UNL1        0.1037
     16 N         143.0158  137.4483  157.0971 N.ar    1  UNL1       -0.2075
     17 C         142.1812  136.9925  155.9370 C.ar    1  UNL1        0.2601
     18 C         138.5868  137.3825  154.4906 C.3     1  UNL1        0.2527
     19 O         139.8525  136.6553  154.8355 O.3     1  UNL1       -0.4667
     20 O         142.8409  136.4183  154.7184 O.3     1  UNL1       -0.4541
     21 C         142.9596  134.9314  154.5601 C.3     1  UNL1        0.2543
     22 C         138.9301  139.3803  165.8814 C.ar    1  UNL1        0.0942
     23 C         137.8520  138.6773  166.6519 C.ar    1  UNL1        0.1365
     24 N         138.0523  138.9771  168.1080 N.ar    1  UNL1       -0.1660
     25 N         139.2541  139.8653  168.2373 N.ar    1  UNL1       -0.2393
     26 C         139.7966  140.1145  166.8611 C.ar    1  UNL1        0.1118
     27 C         139.8149  140.4090  169.5179 C.3     1  UNL1        0.2302
     28 C         141.2992  140.5375  169.6917 C.3     1  UNL1        0.4200
     29 F         142.7836  140.6660  169.8656 F       1  UNL1       -0.1679
     30 F         141.3830  139.0837  170.0516 F       1  UNL1       -0.1679
     31 F         141.2155  141.9912  169.3318 F       1  UNL1       -0.1679
@<TRIPOS>BOND
     1    18    19    1
     2    19    12    1
     3    12    13   ar
     4    13    14   ar
     5    14     1    1
     6     1     2   ar
     7     2     3   ar
     8     3     4   ar
     9     4     5   ar
    10     5     6   ar
    11     5     7    1
    12     7     8    1
    13     7     9    1
    14     9    22    1
    15    22    23   ar
    16    23    24   ar
    17    24    25   ar
    18    25    27    1
    19    27    28    1
    20    28    29    1
    21    28    30    1
    22    28    31    1
    23    25    26   ar
    24     9    10   am
    25    10    11    2
    26    14    15   ar
    27    15    16   ar
    28    16    17   ar
    29    17    20    1
    30    20    21    1
    31    17    12   ar
    32     6     1   ar
    33    26    22   ar
    34    10     4    1
@<TRIPOS>MOLECULE
*****
 31 34 0 0 0
SMALL
GASTEIGER

@<TRIPOS>ATOM
      1 C         142.6320  138.3001  159.5973 C.ar    1  UNL1        0.0826
      2 C         143.6109  139.4361  159.5661 C.ar    1  UNL1        0.0193
      3 C         144.0315  140.0991  160.8441 C.ar    1  UNL1        0.0073
      4 C         143.4731  139.6261  162.1535 C.ar    1  UNL1        0.0691
      5 C         142.4942  138.4900  162.1848 C.ar    1  UNL1        0.0816
      6 N         142.0736  137.8270  160.9067 N.ar    1  UNL1       -0.2478
      7 C         142.1160  138.2433  163.6152 C.3     1  UNL1        0.1203
      8 C         141.1604  137.1967  164.1066 C.3     1  UNL1        0.0284
      9 N         142.8613  139.2269  164.4680 N.am    1  UNL1       -0.2485
     10 C         143.7000  140.0815  163.5646 C.2     1  UNL1        0.2542
     11 O         144.6065  141.1958  163.9965 O.2     1  UNL1       -0.2695
     12 C         142.5115  135.7503  156.5585 C.ar    1  UNL1        0.1916
     13 C         142.9321  136.4133  157.8366 C.ar    1  UNL1        0.0448
     14 C         142.2113  137.6370  158.3192 C.ar    1  UNL1        0.0400
     15 C         141.0699  138.1978  157.5238 C.ar    1  UNL1        0.1037
     16 N         140.6493  137.5348  156.2457 N.ar    1  UNL1       -0.2075
     17 C         141.3701  136.3110  155.7631 C.ar    1  UNL1        0.2601
     18 C         142.7407  133.1640  156.4656 C.3     1  UNL1        0.2527
     19 O         143.2323  134.5266  156.0759 O.3     1  UNL1       -0.4667
     20 O         140.9494  135.6480  154.4850 O.3     1  UNL1       -0.4541
     21 C         141.6378  135.9949  153.1982 C.3     1  UNL1        0.2543
     22 C         142.7817  139.3365  165.9619 C.ar    1  UNL1        0.0942
     23 C         143.4346  138.4155  166.9496 C.ar    1  UNL1        0.1365
     24 N         143.0916  138.8962  168.3285 N.ar    1  UNL1       -0.1660
     25 N         142.2268  140.1143  168.1930 N.ar    1  UNL1       -0.2393
     26 C         142.0353  140.3864  166.7302 C.ar    1  UNL1        0.1118
     27 C         141.6541  140.9190  169.3219 C.3     1  UNL1        0.2302
     28 C         140.1939  140.8176  169.6498 C.3     1  UNL1        0.4200
     29 F         138.7337  140.7161  169.9779 F       1  UNL1       -0.1679
     30 F         140.4276  139.4741  170.2748 F       1  UNL1       -0.1679
     31 F         139.9602  142.1609  169.0249 F       1  UNL1       -0.1679
@<TRIPOS>BOND
     1    18    19    1
     2    19    12    1
     3    12    13   ar
     4    13    14   ar
     5    14     1    1
     6     1     2   ar
     7     2     3   ar
     8     3     4   ar
     9     4     5   ar
    10     5     6   ar
    11     5     7    1
    12     7     8    1
    13     7     9    1
    14     9    22    1
    15    22    23   ar
    16    23    24   ar
    17    24    25   ar
    18    25    27    1
    19    27    28    1
    20    28    29    1
    21    28    30    1
    22    28    31    1
    23    25    26   ar
    24     9    10   am
    25    10    11    2
    26    14    15   ar
    27    15    16   ar
    28    16    17   ar
    29    17    20    1
    30    20    21    1
    31    17    12   ar
    32     6     1   ar
    33    26    22   ar
    34    10     4    1
@<TRIPOS>MOLECULE
*****
 31 34 0 0 0
SMALL
GASTEIGER

@<TRIPOS>ATOM
      1 C         140.6001  138.6438  160.7258 C.ar    1  UNL1        0.0826
      2 C         139.2982  138.0600  161.1887 C.ar    1  UNL1        0.0193
      3 C         138.9400  138.0867  162.6450 C.ar    1  UNL1        0.0073
      4 C         139.8836  138.6973  163.6384 C.ar    1  UNL1        0.0691
      5 C         141.1854  139.2810  163.1755 C.ar    1  UNL1        0.0816
      6 N         141.5437  139.2543  161.7192 N.ar    1  UNL1       -0.2478
      7 C         141.9091  139.8114  164.3776 C.3     1  UNL1        0.1203
      8 C         143.2517  140.4803  164.3744 C.3     1  UNL1        0.0284
      9 N         141.0545  139.5553  165.5835 N.am    1  UNL1       -0.2485
     10 C         139.8026  138.8668  165.1267 C.2     1  UNL1        0.2542
     11 O         138.6689  138.4252  166.0040 O.2     1  UNL1       -0.2695
     12 C         142.7163  138.9106  157.3790 C.ar    1  UNL1        0.1916
     13 C         142.3580  138.9373  158.8354 C.ar    1  UNL1        0.0448
     14 C         140.9584  138.6170  159.2694 C.ar    1  UNL1        0.0400
     15 C         139.9170  138.2700  158.2471 C.ar    1  UNL1        0.1037
     16 N         140.2753  138.2432  156.7908 N.ar    1  UNL1       -0.2075
     17 C         141.6749  138.5635  156.3567 C.ar    1  UNL1        0.2601
     18 C         144.6598  140.6166  157.1295 C.3     1  UNL1        0.2527
     19 O         144.1159  139.2309  156.9450 O.3     1  UNL1       -0.4667
     20 O         142.0332  138.5368  154.9004 O.3     1  UNL1       -0.4541
     21 C         142.5336  137.2689  154.2743 C.3     1  UNL1        0.2543
     22 C         141.3925  139.9233  166.9979 C.ar    1  UNL1        0.0942
     23 C         142.5663  139.4186  167.7838 C.ar    1  UNL1        0.1365
     24 N         142.5152  140.0440  169.1463 N.ar    1  UNL1       -0.1660
     25 N         141.3099  140.9350  169.2024 N.ar    1  UNL1       -0.2393
     26 C         140.6160  140.8604  167.8746 C.ar    1  UNL1        0.1118
     27 C         140.8748  141.7565  170.3797 C.3     1  UNL1        0.2302
     28 C         140.5871  143.2187  170.2086 C.3     1  UNL1        0.4200
     29 F         140.2994  144.6809  170.0376 F       1  UNL1       -0.1679
     30 F         139.2224  143.0191  170.7982 F       1  UNL1       -0.1679
     31 F         141.9518  143.4183  169.6191 F       1  UNL1       -0.1679
@<TRIPOS>BOND
     1    18    19    1
     2    19    12    1
     3    12    13   ar
     4    13    14   ar
     5    14     1    1
     6     1     2   ar
     7     2     3   ar
     8     3     4   ar
     9     4     5   ar
    10     5     6   ar
    11     5     7    1
    12     7     8    1
    13     7     9    1
    14     9    22    1
    15    22    23   ar
    16    23    24   ar
    17    24    25   ar
    18    25    27    1
    19    27    28    1
    20    28    29    1
    21    28    30    1
    22    28    31    1
    23    25    26   ar
    24     9    10   am
    25    10    11    2
    26    14    15   ar
    27    15    16   ar
    28    16    17   ar
    29    17    20    1
    30    20    21    1
    31    17    12   ar
    32     6     1   ar
    33    26    22   ar
    34    10     4    1
@<TRIPOS>MOLECULE
*****
 31 34 0 0 0
SMALL
GASTEIGER

@<TRIPOS>ATOM
      1 C         141.2137  140.2484  166.1026 C.ar    1  UNL1        0.0826
      2 C         142.5759  140.8508  166.2798 C.ar    1  UNL1        0.0193
      3 C         143.5003  140.9737  165.1049 C.ar    1  UNL1        0.0073
      4 C         143.0624  140.4941  163.7528 C.ar    1  UNL1        0.0691
      5 C         141.7002  139.8917  163.5755 C.ar    1  UNL1        0.0816
      6 N         140.7758  139.7689  164.7505 N.ar    1  UNL1       -0.2478
      7 C         141.5464  139.5098  162.1332 C.3     1  UNL1        0.1203
      8 C         140.3376  138.8732  161.5138 C.3     1  UNL1        0.0284
      9 N         142.8136  139.8761  161.4190 N.am    1  UNL1       -0.2485
     10 C         143.7506  140.4844  162.4199 C.2     1  UNL1        0.2542
     11 O         145.1329  140.9937  162.1377 O.2     1  UNL1       -0.2695
     12 C         139.7105  140.6681  169.7516 C.ar    1  UNL1        0.1916
     13 C         140.6350  140.7910  168.5766 C.ar    1  UNL1        0.0448
     14 C         140.2893  140.1255  167.2775 C.ar    1  UNL1        0.0400
     15 C         139.0192  139.3372  167.1533 C.ar    1  UNL1        0.1037
     16 N         138.0948  139.2143  168.3282 N.ar    1  UNL1       -0.2075
     17 C         138.4405  139.8798  169.6273 C.ar    1  UNL1        0.2601
     18 C         141.4750  141.7270  171.3376 C.3     1  UNL1        0.2527
     19 O         140.0562  141.3335  171.0507 O.3     1  UNL1       -0.4667
     20 O         137.5160  139.7569  170.8022 O.3     1  UNL1       -0.4541
     21 C         136.5029  138.6516  170.8470 C.3     1  UNL1        0.2543
     22 C         143.0944  139.6701  159.9599 C.ar    1  UNL1        0.0942
     23 C         142.9536  138.3795  159.2086 C.ar    1  UNL1        0.1365
     24 N         143.3376  138.6304  157.7804 N.ar    1  UNL1       -0.1660
     25 N         143.7157  140.0760  157.6491 N.ar    1  UNL1       -0.2393
     26 C         143.5654  140.7186  158.9963 C.ar    1  UNL1        0.1118
     27 C         144.1651  140.7592  156.3916 C.3     1  UNL1        0.2302
     28 C         145.5790  141.2440  156.2658 C.3     1  UNL1        0.4200
     29 F         146.9929  141.7290  156.1399 F       1  UNL1       -0.1679
     30 F         145.1565  142.6006  156.7466 F       1  UNL1       -0.1679
     31 F         146.0015  139.8875  155.7850 F       1  UNL1       -0.1679
@<TRIPOS>BOND
     1    18    19    1
     2    19    12    1
     3    12    13   ar
     4    13    14   ar
     5    14     1    1
     6     1     2   ar
     7     2     3   ar
     8     3     4   ar
     9     4     5   ar
    10     5     6   ar
    11     5     7    1
    12     7     8    1
    13     7     9    1
    14     9    22    1
    15    22    23   ar
    16    23    24   ar
    17    24    25   ar
    18    25    27    1
    19    27    28    1
    20    28    29    1
    21    28    30    1
    22    28    31    1
    23    25    26   ar
    24     9    10   am
    25    10    11    2
    26    14    15   ar
    27    15    16   ar
    28    16    17   ar
    29    17    20    1
    30    20    21    1
    31    17    12   ar
    32     6     1   ar
    33    26    22   ar
    34    10     4    1
@<TRIPOS>MOLECULE
*****
 31 34 0 0 0
SMALL
GASTEIGER

@<TRIPOS>ATOM
      1 C         140.9598  139.9078  166.0686 C.ar    1  UNL1        0.0826
      2 C         142.2976  140.5788  166.1685 C.ar    1  UNL1        0.0193
      3 C         143.1978  140.6388  164.9702 C.ar    1  UNL1        0.0073
      4 C         142.7602  140.0279  163.6720 C.ar    1  UNL1        0.0691
      5 C         141.4224  139.3569  163.5722 C.ar    1  UNL1        0.0816
      6 N         140.5222  139.2969  164.7705 N.ar    1  UNL1       -0.2478
      7 C         141.2630  138.8471  162.1705 C.3     1  UNL1        0.1203
      8 C         140.0732  138.1107  161.6302 C.3     1  UNL1        0.0284
      9 N         142.5024  139.2029  161.4041 N.am    1  UNL1       -0.2485
     10 C         143.4277  139.9327  162.3321 C.2     1  UNL1        0.2542
     11 O         144.7826  140.4726  161.9817 O.2     1  UNL1       -0.2695
     12 C         139.5624  140.4658  169.7411 C.ar    1  UNL1        0.1916
     13 C         140.4627  140.5258  168.5427 C.ar    1  UNL1        0.0448
     14 C         140.0595  139.8478  167.2670 C.ar    1  UNL1        0.0400
     15 C         138.7559  139.1097  167.1895 C.ar    1  UNL1        0.1037
     16 N         137.8557  139.0496  168.3877 N.ar    1  UNL1       -0.2075
     17 C         138.2589  139.7277  169.6636 C.ar    1  UNL1        0.2601
     18 C         141.3889  141.5709  171.2218 C.3     1  UNL1        0.2527
     19 O         139.9657  141.1438  171.0168 O.3     1  UNL1       -0.4667
     20 O         137.3586  139.6676  170.8618 O.3     1  UNL1       -0.4541
     21 C         136.4445  138.4941  171.0551 C.3     1  UNL1        0.2543
     22 C         142.7695  138.8848  159.9627 C.ar    1  UNL1        0.0942
     23 C         143.2959  139.8392  158.9321 C.ar    1  UNL1        0.1365
     24 N         143.4087  139.1007  157.6313 N.ar    1  UNL1       -0.1660
     25 N         142.9521  137.6900  157.8581 N.ar    1  UNL1       -0.2393
     26 C         142.5570  137.5566  159.2990 C.ar    1  UNL1        0.1118
     27 C         142.8998  136.6035  156.8253 C.3     1  UNL1        0.2302
     28 C         141.5967  136.2542  156.1695 C.3     1  UNL1        0.4200
     29 F         140.2935  135.9050  155.5137 F       1  UNL1       -0.1679
     30 F         141.2154  137.7049  156.1546 F       1  UNL1       -0.1679
     31 F         141.9779  134.8036  156.1845 F       1  UNL1       -0.1679
@<TRIPOS>BOND
     1    18    19    1
     2    19    12    1
     3    12    13   ar
     4    13    14   ar
     5    14     1    1
     6     1     2   ar
     7     2     3   ar
     8     3     4   ar
     9     4     5   ar
    10     5     6   ar
    11     5     7    1
    12     7     8    1
    13     7     9    1
    14     9    22    1
    15    22    23   ar
    16    23    24   ar
    17    24    25   ar
    18    25    27    1
    19    27    28    1
    20    28    29    1
    21    28    30    1
    22    28    31    1
    23    25    26   ar
    24     9    10   am
    25    10    11    2
    26    14    15   ar
    27    15    16   ar
    28    16    17   ar
    29    17    20    1
    30    20    21    1
    31    17    12   ar
    32     6     1   ar
    33    26    22   ar
    34    10     4    1
