@<TRIPOS>MOLECULE
*****
 21 25 0 0 0
SMALL
GASTEIGER

@<TRIPOS>ATOM
      1 C         139.1288  139.0464  165.0799 C.ar    1  UNL1        0.0222
      2 C         138.1168  138.5029  166.0445 C.ar    1  UNL1        0.1021
      3 N         138.1789  138.8878  167.4928 N.ar    1  UNL1       -0.2104
      4 C         139.2531  139.8163  167.9766 C.ar    1  UNL1        0.2205
      5 C         140.2651  140.3599  167.0121 C.ar    1  UNL1        0.0345
      6 C         140.2029  139.9749  165.5637 C.ar    1  UNL1        0.0021
      7 C         141.2017  141.2491  167.7750 C.3     1  UNL1        0.0725
      8 C         140.7686  141.2551  169.2111 C.3     1  UNL1        0.1534
      9 C         140.2202  141.1636  170.6042 C.3     1  UNL1        0.1129
     10 N         140.8763  141.9219  171.7198 N.3     1  UNL1       -0.2698
     11 C         142.0807  142.7718  171.4423 C.3     1  UNL1        0.0723
     12 C         142.6290  142.8633  170.0491 C.3     1  UNL1        0.0209
     13 C         141.9730  142.1050  168.9335 C.3     1  UNL1        0.0412
     14 C         141.0748  141.6090  169.7317 C.3     1  UNL1        0.0209
     15 C         140.7823  141.5602  170.4747 C.3     1  UNL1        0.0723
     16 O         139.5643  140.3696  169.3357 O.3     1  UNL1       -0.4660
     17 C         138.3900  138.5329  161.3041 C.ar    1  UNL1        0.1798
     18 C         138.0900  139.1857  162.6209 C.ar    1  UNL1        0.0438
     19 C         139.0666  138.6614  163.6314 C.ar    1  UNL1        0.0423
     20 C         139.9703  137.6845  162.9392 C.ar    1  UNL1        0.1797
     21 O         139.5521  137.6050  161.5009 O.2     1  UNL1       -0.4473
@<TRIPOS>BOND
     1    17    18   ar
     2    18    19   ar
     3    19     1    1
     4     1     2   ar
     5     2     3   ar
     6     3     4   ar
     7     4     5   ar
     8     5     6   ar
     9     5     7    1
    10     8     7    1
    11     8     9    1
    12     9    10    1
    13    10    11    1
    14    11    12    1
    15    12    13    1
    16    13    14    1
    17    14    15    1
    18     8    16    1
    19    19    20   ar
    20    20    21   ar
    21    21    17   ar
    22     6     1   ar
    23    13     8    1
    24    16     4    1
    25    15    10    1
@<TRIPOS>MOLECULE
*****
 21 25 0 0 0
SMALL
GASTEIGER

@<TRIPOS>ATOM
      1 C         139.7417  143.2651  163.6293 C.ar    1  UNL1        0.0222
      2 C         139.1824  141.8940  163.3905 C.ar    1  UNL1        0.1021
      3 N         139.1014  140.9098  164.5195 N.ar    1  UNL1       -0.2104
      4 C         139.5798  141.2969  165.8875 C.ar    1  UNL1        0.2205
      5 C         140.1392  142.6681  166.1263 C.ar    1  UNL1        0.0345
      6 C         140.2201  143.6522  164.9972 C.ar    1  UNL1        0.0021
      7 C         140.5302  142.7639  167.5713 C.3     1  UNL1        0.0725
      8 C         140.2127  141.4520  168.2255 C.3     1  UNL1        0.1534
      9 C         139.8431  140.0922  168.7395 C.3     1  UNL1        0.1129
     10 N         140.0725  139.7474  170.1812 N.3     1  UNL1       -0.2698
     11 C         140.6717  140.7625  171.1089 C.3     1  UNL1        0.0723
     12 C         141.0413  142.1223  170.5948 C.3     1  UNL1        0.0209
     13 C         140.8118  142.4671  169.1531 C.3     1  UNL1        0.0412
     14 C         140.3198  141.2911  168.8983 C.3     1  UNL1        0.0209
     15 C         140.1226  140.5659  169.1724 C.3     1  UNL1        0.0723
     16 O         139.6253  140.5453  167.1848 O.3     1  UNL1       -0.4660
     17 C         140.3893  145.2918  160.3829 C.ar    1  UNL1        0.1798
     18 C         140.5858  144.0642  161.2222 C.ar    1  UNL1        0.0438
     19 C         139.8226  144.2493  162.5001 C.ar    1  UNL1        0.0423
     20 C         139.1544  145.5914  162.4507 C.ar    1  UNL1        0.1797
     21 O         139.5047  146.2357  161.1422 O.2     1  UNL1       -0.4473
@<TRIPOS>BOND
     1    17    18   ar
     2    18    19   ar
     3    19     1    1
     4     1     2   ar
     5     2     3   ar
     6     3     4   ar
     7     4     5   ar
     8     5     6   ar
     9     5     7    1
    10     8     7    1
    11     8     9    1
    12     9    10    1
    13    10    11    1
    14    11    12    1
    15    12    13    1
    16    13    14    1
    17    14    15    1
    18     8    16    1
    19    19    20   ar
    20    20    21   ar
    21    21    17   ar
    22     6     1   ar
    23    13     8    1
    24    16     4    1
    25    15    10    1
@<TRIPOS>MOLECULE
*****
 21 25 0 0 0
SMALL
GASTEIGER

@<TRIPOS>ATOM
      1 C         140.2624  140.0844  167.9323 C.ar    1  UNL1        0.0222
      2 C         138.9717  139.5131  167.4247 C.ar    1  UNL1        0.1021
      3 N         138.9134  138.8846  166.0640 N.ar    1  UNL1       -0.2104
      4 C         140.1458  138.8275  165.2109 C.ar    1  UNL1        0.2205
      5 C         141.4365  139.3988  165.7184 C.ar    1  UNL1        0.0345
      6 C         141.4948  140.0273  167.0791 C.ar    1  UNL1        0.0021
      7 C         142.4801  139.1989  164.6596 C.3     1  UNL1        0.0725
      8 C         141.8344  138.5040  163.4977 C.3     1  UNL1        0.1534
      9 C         141.0556  137.8113  162.4190 C.3     1  UNL1        0.1129
     10 N         141.7335  137.4154  161.1408 N.3     1  UNL1       -0.2698
     11 C         143.1902  137.7123  160.9413 C.3     1  UNL1        0.0723
     12 C         143.9689  138.4050  162.0200 C.3     1  UNL1        0.0209
     13 C         143.2910  138.8009  163.2982 C.3     1  UNL1        0.0412
     14 C         142.1507  138.3193  162.9012 C.3     1  UNL1        0.0209
     15 C         141.7354  137.9498  162.3259 C.3     1  UNL1        0.0723
     16 O         140.3917  138.2744  163.8384 O.3     1  UNL1       -0.4660
     17 C         140.3742  142.3607  171.0742 C.ar    1  UNL1        0.1798
     18 C         140.2965  142.1837  169.5867 C.ar    1  UNL1        0.0438
     19 C         140.3206  140.7129  169.2930 C.ar    1  UNL1        0.0423
     20 C         140.4132  139.9809  170.5991 C.ar    1  UNL1        0.1797
     21 O         140.4463  140.9993  171.6999 O.2     1  UNL1       -0.4473
@<TRIPOS>BOND
     1    17    18   ar
     2    18    19   ar
     3    19     1    1
     4     1     2   ar
     5     2     3   ar
     6     3     4   ar
     7     4     5   ar
     8     5     6   ar
     9     5     7    1
    10     8     7    1
    11     8     9    1
    12     9    10    1
    13    10    11    1
    14    11    12    1
    15    12    13    1
    16    13    14    1
    17    14    15    1
    18     8    16    1
    19    19    20   ar
    20    20    21   ar
    21    21    17   ar
    22     6     1   ar
    23    13     8    1
    24    16     4    1
    25    15    10    1
@<TRIPOS>MOLECULE
*****
 21 25 0 0 0
SMALL
GASTEIGER

@<TRIPOS>ATOM
      1 C         139.5327  140.1071  168.0310 C.ar    1  UNL1        0.0222
      2 C         138.2864  139.2770  167.9440 C.ar    1  UNL1        0.1021
      3 N         137.8749  138.6771  166.6323 N.ar    1  UNL1       -0.2104
      4 C         138.7097  138.9073  165.4075 C.ar    1  UNL1        0.2205
      5 C         139.9560  139.7374  165.4945 C.ar    1  UNL1        0.0345
      6 C         140.3676  140.3373  166.8063 C.ar    1  UNL1        0.0021
      7 C         140.5736  139.7908  164.1286 C.3     1  UNL1        0.0725
      8 C         139.7090  138.9938  163.1974 C.3     1  UNL1        0.1534
      9 C         138.7519  138.1682  162.3898 C.3     1  UNL1        0.1129
     10 N         138.9963  137.9547  160.9254 N.3     1  UNL1       -0.2698
     11 C         140.1978  138.5668  160.2685 C.3     1  UNL1        0.0723
     12 C         141.1549  139.3924  161.0760 C.3     1  UNL1        0.0209
     13 C         140.9105  139.6059  162.5405 C.3     1  UNL1        0.0412
     14 C         139.8230  138.8942  162.5140 C.3     1  UNL1        0.0209
     15 C         139.3126  138.4538  162.0833 C.3     1  UNL1        0.0723
     16 O         138.5570  138.4477  163.9878 O.3     1  UNL1       -0.4660
     17 C         140.6094  142.3079  171.0415 C.ar    1  UNL1        0.1798
     18 C         140.2378  142.1561  169.5963 C.ar    1  UNL1        0.0438
     19 C         139.9442  140.7071  169.3428 C.ar    1  UNL1        0.0423
     20 C         140.1344  139.9633  170.6315 C.ar    1  UNL1        0.1797
     21 O         140.5455  140.9526  171.6814 O.2     1  UNL1       -0.4473
@<TRIPOS>BOND
     1    17    18   ar
     2    18    19   ar
     3    19     1    1
     4     1     2   ar
     5     2     3   ar
     6     3     4   ar
     7     4     5   ar
     8     5     6   ar
     9     5     7    1
    10     8     7    1
    11     8     9    1
    12     9    10    1
    13    10    11    1
    14    11    12    1
    15    12    13    1
    16    13    14    1
    17    14    15    1
    18     8    16    1
    19    19    20   ar
    20    20    21   ar
    21    21    17   ar
    22     6     1   ar
    23    13     8    1
    24    16     4    1
    25    15    10    1
@<TRIPOS>MOLECULE
*****
 21 25 0 0 0
SMALL
GASTEIGER

@<TRIPOS>ATOM
      1 C         140.8933  138.7498  163.5396 C.ar    1  UNL1        0.0222
      2 C         139.3992  138.7375  163.6713 C.ar    1  UNL1        0.1021
      3 N         138.7594  139.0718  164.9861 N.ar    1  UNL1       -0.2104
      4 C         139.6137  139.4185  166.1693 C.ar    1  UNL1        0.2205
      5 C         141.1079  139.4309  166.0376 C.ar    1  UNL1        0.0345
      6 C         141.7477  139.0965  164.7228 C.ar    1  UNL1        0.0021
      7 C         141.6874  139.8087  167.3685 C.3     1  UNL1        0.0725
      8 C         140.5514  140.0298  168.3228 C.3     1  UNL1        0.1534
      9 C         139.3194  140.2157  169.1580 C.3     1  UNL1        0.1129
     10 N         139.4433  140.6089  170.6002 N.3     1  UNL1       -0.2698
     11 C         140.7992  140.8162  171.2073 C.3     1  UNL1        0.0723
     12 C         142.0312  140.6303  170.3721 C.3     1  UNL1        0.0209
     13 C         141.9073  140.2371  168.9299 C.3     1  UNL1        0.0412
     14 C         140.6092  140.2133  168.9959 C.3     1  UNL1        0.0209
     15 C         139.9522  140.3125  169.4413 C.3     1  UNL1        0.0723
     16 O         139.2699  139.7887  167.5816 O.3     1  UNL1       -0.4660
     17 C         143.1679  137.7694  160.5511 C.ar    1  UNL1        0.1798
     18 C         142.9613  138.0061  162.0179 C.ar    1  UNL1        0.0438
     19 C         141.5331  138.4155  162.2247 C.ar    1  UNL1        0.0423
     20 C         140.8570  138.4318  160.8858 C.ar    1  UNL1        0.1797
     21 O         141.8673  138.0325  159.8514 O.2     1  UNL1       -0.4473
@<TRIPOS>BOND
     1    17    18   ar
     2    18    19   ar
     3    19     1    1
     4     1     2   ar
     5     2     3   ar
     6     3     4   ar
     7     4     5   ar
     8     5     6   ar
     9     5     7    1
    10     8     7    1
    11     8     9    1
    12     9    10    1
    13    10    11    1
    14    11    12    1
    15    12    13    1
    16    13    14    1
    17    14    15    1
    18     8    16    1
    19    19    20   ar
    20    20    21   ar
    21    21    17   ar
    22     6     1   ar
    23    13     8    1
    24    16     4    1
    25    15    10    1
@<TRIPOS>MOLECULE
*****
 21 25 0 0 0
SMALL
GASTEIGER

@<TRIPOS>ATOM
      1 C         140.3448  141.5880  167.6960 C.ar    1  UNL1        0.0222
      2 C         139.8012  140.2252  168.0080 C.ar    1  UNL1        0.1021
      3 N         139.1504  139.4122  166.9284 N.ar    1  UNL1       -0.2104
      4 C         139.0432  139.9620  165.5370 C.ar    1  UNL1        0.2205
      5 C         139.5868  141.3248  165.2250 C.ar    1  UNL1        0.0345
      6 C         140.2376  142.1378  166.3046 C.ar    1  UNL1        0.0021
      7 C         139.3386  141.6014  163.7718 C.3     1  UNL1        0.0725
      8 C         138.6416  140.4096  163.1855 C.3     1  UNL1        0.1534
      9 C         137.9520  139.1534  162.7423 C.3     1  UNL1        0.1129
     10 N         137.5144  139.0014  161.3157 N.3     1  UNL1       -0.2698
     11 C         137.7663  140.1056  160.3322 C.3     1  UNL1        0.0723
     12 C         138.4559  141.3618  160.7754 C.3     1  UNL1        0.0209
     13 C         138.8935  141.5138  162.2021 C.3     1  UNL1        0.0412
     14 C         138.4373  140.3387  162.5198 C.3     1  UNL1        0.0209
     15 C         138.0696  139.6687  162.2834 C.3     1  UNL1        0.0723
     16 O         138.4590  139.3964  164.2765 O.3     1  UNL1       -0.4660
     17 C         142.6007  143.2081  170.4075 C.ar    1  UNL1        0.1798
     18 C         142.3549  142.1604  169.3625 C.ar    1  UNL1        0.0438
     19 C         140.9956  142.4010  168.7757 C.ar    1  UNL1        0.0423
     20 C         140.4013  143.5974  169.4580 C.ar    1  UNL1        0.1797
     21 O         141.3933  144.0962  170.4665 O.2     1  UNL1       -0.4473
@<TRIPOS>BOND
     1    17    18   ar
     2    18    19   ar
     3    19     1    1
     4     1     2   ar
     5     2     3   ar
     6     3     4   ar
     7     4     5   ar
     8     5     6   ar
     9     5     7    1
    10     8     7    1
    11     8     9    1
    12     9    10    1
    13    10    11    1
    14    11    12    1
    15    12    13    1
    16    13    14    1
    17    14    15    1
    18     8    16    1
    19    19    20   ar
    20    20    21   ar
    21    21    17   ar
    22     6     1   ar
    23    13     8    1
    24    16     4    1
    25    15    10    1
@<TRIPOS>MOLECULE
*****
 21 25 0 0 0
SMALL
GASTEIGER

@<TRIPOS>ATOM
      1 C         140.8473  140.4481  168.1799 C.ar    1  UNL1        0.0222
      2 C         142.1456  139.7490  167.9048 C.ar    1  UNL1        0.1021
      3 N         142.3692  139.0750  166.5835 N.ar    1  UNL1       -0.2104
      4 C         141.2945  139.1002  165.5374 C.ar    1  UNL1        0.2205
      5 C         139.9962  139.7993  165.8126 C.ar    1  UNL1        0.0345
      6 C         139.7726  140.4732  167.1338 C.ar    1  UNL1        0.0021
      7 C         139.1277  139.6591  164.5977 C.3     1  UNL1        0.0725
      8 C         139.8891  138.8734  163.5716 C.3     1  UNL1        0.1534
      9 C         140.7677  138.0807  162.6499 C.3     1  UNL1        0.1129
     10 N         140.2763  137.7061  161.2831 N.3     1  UNL1       -0.2698
     11 C         138.9063  138.1243  160.8380 C.3     1  UNL1        0.0723
     12 C         138.0277  138.9170  161.7597 C.3     1  UNL1        0.0209
     13 C         138.5191  139.2915  163.1265 C.3     1  UNL1        0.0412
     14 C         139.6598  138.6986  162.9338 C.3     1  UNL1        0.0209
     15 C         140.1284  138.2758  162.4422 C.3     1  UNL1        0.0723
     16 O         141.2283  138.5280  164.1524 O.3     1  UNL1       -0.4660
     17 C         140.0103  142.7630  171.1809 C.ar    1  UNL1        0.1798
     18 C         140.0564  142.4954  169.7057 C.ar    1  UNL1        0.0438
     19 C         140.6237  141.1220  169.5013 C.ar    1  UNL1        0.0423
     20 C         140.9283  140.5408  170.8502 C.ar    1  UNL1        0.1797
     21 O         140.5492  141.5550  171.8883 O.2     1  UNL1       -0.4473
@<TRIPOS>BOND
     1    17    18   ar
     2    18    19   ar
     3    19     1    1
     4     1     2   ar
     5     2     3   ar
     6     3     4   ar
     7     4     5   ar
     8     5     6   ar
     9     5     7    1
    10     8     7    1
    11     8     9    1
    12     9    10    1
    13    10    11    1
    14    11    12    1
    15    12    13    1
    16    13    14    1
    17    14    15    1
    18     8    16    1
    19    19    20   ar
    20    20    21   ar
    21    21    17   ar
    22     6     1   ar
    23    13     8    1
    24    16     4    1
    25    15    10    1
@<TRIPOS>MOLECULE
*****
 21 25 0 0 0
SMALL
GASTEIGER

@<TRIPOS>ATOM
      1 C         141.1783  141.9036  167.4160 C.ar    1  UNL1        0.0222
      2 C         142.4281  141.3330  166.8139 C.ar    1  UNL1        0.1021
      3 N         142.8495  141.7412  165.4334 N.ar    1  UNL1       -0.2104
      4 C         142.0212  142.7200  164.6551 C.ar    1  UNL1        0.2205
      5 C         140.7714  143.2906  165.2572 C.ar    1  UNL1        0.0345
      6 C         140.3500  142.8824  166.6377 C.ar    1  UNL1        0.0021
      7 C         140.1618  144.2285  164.2578 C.3     1  UNL1        0.0725
      8 C         141.0348  144.2376  163.0381 C.3     1  UNL1        0.1534
      9 C         141.9996  144.1438  161.8934 C.3     1  UNL1        0.1129
     10 N         141.7647  144.9446  160.6470 N.3     1  UNL1       -0.2698
     11 C         140.5650  145.8391  160.5452 C.3     1  UNL1        0.0723
     12 C         139.6001  145.9329  161.6899 C.3     1  UNL1        0.0209
     13 C         139.8351  145.1321  162.9363 C.3     1  UNL1        0.0412
     14 C         140.9252  144.6113  162.4564 C.3     1  UNL1        0.0209
     15 C         141.4397  144.5613  161.8459 C.3     1  UNL1        0.0723
     16 O         142.1839  143.3053  163.2836 O.3     1  UNL1       -0.4660
     17 C         140.2418  140.1494  170.7494 C.ar    1  UNL1        0.1798
     18 C         140.7250  140.0940  169.3304 C.ar    1  UNL1        0.0438
     19 C         140.7569  141.4954  168.7966 C.ar    1  UNL1        0.0423
     20 C         140.2934  142.4169  169.8856 C.ar    1  UNL1        0.1797
     21 O         139.9750  141.5851  171.0925 O.2     1  UNL1       -0.4473
@<TRIPOS>BOND
     1    17    18   ar
     2    18    19   ar
     3    19     1    1
     4     1     2   ar
     5     2     3   ar
     6     3     4   ar
     7     4     5   ar
     8     5     6   ar
     9     5     7    1
    10     8     7    1
    11     8     9    1
    12     9    10    1
    13    10    11    1
    14    11    12    1
    15    12    13    1
    16    13    14    1
    17    14    15    1
    18     8    16    1
    19    19    20   ar
    20    20    21   ar
    21    21    17   ar
    22     6     1   ar
    23    13     8    1
    24    16     4    1
    25    15    10    1
@<TRIPOS>MOLECULE
*****
 21 25 0 0 0
SMALL
GASTEIGER

@<TRIPOS>ATOM
      1 C         140.0160  141.2155  167.5033 C.ar    1  UNL1        0.0222
      2 C         139.4662  140.1171  166.6424 C.ar    1  UNL1        0.1021
      3 N         139.2211  140.3597  165.1826 N.ar    1  UNL1       -0.2104
      4 C         139.5259  141.7007  164.5837 C.ar    1  UNL1        0.2205
      5 C         140.0757  142.7991  165.4446 C.ar    1  UNL1        0.0345
      6 C         140.3208  142.5565  166.9044 C.ar    1  UNL1        0.0021
      7 C         140.2783  144.0082  164.5802 C.3     1  UNL1        0.0725
      8 C         139.8538  143.6570  163.1850 C.3     1  UNL1        0.1534
      9 C         139.3948  143.1629  161.8452 C.3     1  UNL1        0.1129
     10 N         139.4293  144.0772  160.6566 N.3     1  UNL1       -0.2698
     11 C         139.9227  145.4857  160.8078 C.3     1  UNL1        0.0723
     12 C         140.3816  145.9797  162.1477 C.3     1  UNL1        0.0209
     13 C         140.3472  145.0654  163.3363 C.3     1  UNL1        0.0412
     14 C         139.8698  144.0837  162.6303 C.3     1  UNL1        0.0209
     15 C         139.6251  143.8202  161.9158 C.3     1  UNL1        0.0723
     16 O         139.3887  142.2309  163.1872 O.3     1  UNL1       -0.4660
     17 C         141.3399  140.8533  171.1340 C.ar    1  UNL1        0.1798
     18 C         141.5405  141.2410  169.6989 C.ar    1  UNL1        0.0438
     19 C         140.2611  140.9728  168.9631 C.ar    1  UNL1        0.0423
     20 C         139.2699  140.4194  169.9435 C.ar    1  UNL1        0.1797
     21 O         139.9365  140.3455  171.2852 O.2     1  UNL1       -0.4473
@<TRIPOS>BOND
     1    17    18   ar
     2    18    19   ar
     3    19     1    1
     4     1     2   ar
     5     2     3   ar
     6     3     4   ar
     7     4     5   ar
     8     5     6   ar
     9     5     7    1
    10     8     7    1
    11     8     9    1
    12     9    10    1
    13    10    11    1
    14    11    12    1
    15    12    13    1
    16    13    14    1
    17    14    15    1
    18     8    16    1
    19    19    20   ar
    20    20    21   ar
    21    21    17   ar
    22     6     1   ar
    23    13     8    1
    24    16     4    1
    25    15    10    1
