@<TRIPOS>MOLECULE
*****
 36 39 0 0 0
SMALL
GASTEIGER

@<TRIPOS>ATOM
      1 C         138.2267  140.3898  159.6626 C.3     1  UNL1        0.0758
      2 C         139.0714  139.1672  159.4584 C.3     1  UNL1        0.0370
      3 C         139.3890  138.2726  160.6197 C.3     1  UNL1        0.0741
      4 N         138.8618  138.6004  161.9852 N.3     1  UNL1       -0.2688
      5 C         138.0170  139.8229  162.1894 C.3     1  UNL1        0.0741
      6 C         137.6994  140.7176  161.0281 C.3     1  UNL1        0.0370
      7 C         138.7030  145.0118  155.2680 C.3     1  UNL1        0.0931
      8 C         137.4152  144.2736  155.0515 C.3     1  UNL1        0.0429
      9 C         137.3194  143.1946  156.0891 C.3     1  UNL1        0.0968
     10 N         138.5479  143.2659  156.9468 N.am    1  UNL1       -0.2625
     11 C         138.8655  142.3711  158.1081 C.2     1  UNL1        0.3040
     12 O         140.1395  142.5630  158.8763 O.2     1  UNL1       -0.2526
     13 N         137.9091  141.2845  158.5012 N.am    1  UNL1       -0.2903
     14 C         139.4030  144.3890  156.4394 C.3     1  UNL1        0.1144
     15 H         137.0729  141.1586  157.9971 H       1  UNL1        0.1509
     16 C         139.7599  148.6986  154.2484 C.3     1  UNL1        0.0946
     17 C         139.2600  147.5410  155.0606 C.2     1  UNL1        0.2230
     18 O         138.8169  147.7547  156.4776 O.2     1  UNL1       -0.2751
     19 N         139.2030  146.1694  154.4559 N.am    1  UNL1       -0.3042
     20 H         139.4937  146.0291  153.5258 H       1  UNL1        0.1494
     21 C         139.1794  137.7056  163.1465 C.3     1  UNL1        0.1007
     22 C         140.2990  138.0579  164.0805 C.ar    1  UNL1        0.0129
     23 C         141.6198  137.3539  164.1785 C.ar    1  UNL1        0.0176
     24 C         142.4315  138.0369  165.2390 C.ar    1  UNL1        0.0799
     25 N         141.6123  139.1630  165.7964 N.ar    1  UNL1       -0.3038
     26 C         140.2943  139.1760  165.0804 C.ar    1  UNL1        0.0772
     27 C         142.0365  140.1099  166.8797 C.ar    1  UNL1        0.0640
     28 C         141.8528  139.7329  168.3198 C.ar    1  UNL1        0.0175
     29 C         142.2771  140.6797  169.4030 C.ar    1  UNL1        0.0053
     30 C         142.8851  142.0037  169.0461 C.ar    1  UNL1        0.0715
     31 C         143.0688  142.3808  167.6060 C.ar    1  UNL1        0.0053
     32 C         142.6446  141.4339  166.5227 C.ar    1  UNL1        0.0175
     33 C         143.3093  142.9505  170.1293 C.3     1  UNL1        0.4186
     34 F         143.7335  143.8975  171.2126 F       1  UNL1       -0.1659
     35 F         144.7155  142.4386  170.0261 F       1  UNL1       -0.1659
     36 F         141.9031  143.4625  170.2326 F       1  UNL1       -0.1659
@<TRIPOS>BOND
     1    16    17    1
     2    17    18    2
     3    17    19   am
     4    19     7    1
     5     7     8    1
     6     8     9    1
     7     9    10    1
     8    10    11   am
     9    11    12    2
    10    11    13   am
    11    13     1    1
    12     1     2    1
    13     2     3    1
    14     3     4    1
    15     4    21    1
    16    21    22    1
    17    22    23   ar
    18    23    24   ar
    19    24    25   ar
    20    25    27    1
    21    27    28   ar
    22    28    29   ar
    23    29    30   ar
    24    30    33    1
    25    33    34    1
    26    33    35    1
    27    33    36    1
    28    30    31   ar
    29    31    32   ar
    30    25    26   ar
    31     4     5    1
    32     5     6    1
    33    10    14    1
    34    14     7    1
    35     6     1    1
    36    26    22   ar
    37    32    27   ar
    38    19    20    1
    39    13    15    1
@<TRIPOS>MOLECULE
*****
 36 39 0 0 0
SMALL
GASTEIGER

@<TRIPOS>ATOM
      1 C         142.5241  138.6160  159.6027 C.3     1  UNL1        0.0758
      2 C         143.1969  138.0789  160.8310 C.3     1  UNL1        0.0370
      3 C         142.3736  137.6375  162.0046 C.3     1  UNL1        0.0741
      4 N         140.8777  137.7332  161.9499 N.3     1  UNL1       -0.2688
      5 C         140.2050  138.2703  160.7215 C.3     1  UNL1        0.0741
      6 C         141.0282  138.7117  159.5479 C.3     1  UNL1        0.0370
      7 C         146.1599  142.2130  155.7627 C.3     1  UNL1        0.0931
      8 C         145.9323  140.8848  155.1036 C.3     1  UNL1        0.0429
      9 C         145.0790  140.0546  156.0162 C.3     1  UNL1        0.0968
     10 N         144.7793  140.8697  157.2393 N.am    1  UNL1       -0.2625
     11 C         143.9561  140.4282  158.4130 C.2     1  UNL1        0.3040
     12 O         143.7416  141.3577  159.5706 O.2     1  UNL1       -0.2526
     13 N         143.3474  139.0574  158.4290 N.am    1  UNL1       -0.2903
     14 C         145.4473  142.2036  157.0826 C.3     1  UNL1        0.1144
     15 H         143.4882  138.4474  157.6692 H       1  UNL1        0.1509
     16 C         147.2847  145.2029  153.4081 C.3     1  UNL1        0.0946
     17 C         146.4850  144.0653  153.9702 C.2     1  UNL1        0.2230
     18 O         145.2106  143.6421  153.3018 O.2     1  UNL1       -0.2751
     19 N         146.9596  143.3506  155.2007 N.am    1  UNL1       -0.3042
     20 H         147.7961  143.6283  155.6394 H       1  UNL1        0.1494
     21 C         140.0544  137.2917  163.1236 C.3     1  UNL1        0.1007
     22 C         139.8401  138.2210  164.2813 C.ar    1  UNL1        0.0129
     23 C         138.5135  138.6341  164.8464 C.ar    1  UNL1        0.0176
     24 C         138.7682  139.5688  165.9916 C.ar    1  UNL1        0.0799
     25 N         140.2524  139.7334  166.1342 N.ar    1  UNL1       -0.3038
     26 C         140.9148  138.9005  165.0772 C.ar    1  UNL1        0.0772
     27 C         140.9513  140.5820  167.1547 C.ar    1  UNL1        0.0640
     28 C         142.2240  140.1007  167.7857 C.ar    1  UNL1        0.0175
     29 C         142.9229  140.9492  168.8062 C.ar    1  UNL1        0.0053
     30 C         142.3491  142.2792  169.1956 C.ar    1  UNL1        0.0715
     31 C         141.0763  142.7607  168.5646 C.ar    1  UNL1        0.0053
     32 C         140.3774  141.9121  167.5442 C.ar    1  UNL1        0.0175
     33 C         143.0480  143.1278  170.2161 C.3     1  UNL1        0.4186
     34 F         143.7470  143.9764  171.2366 F       1  UNL1       -0.1659
     35 F         141.8130  143.9660  170.3650 F       1  UNL1       -0.1659
     36 F         144.2831  142.2896  170.0673 F       1  UNL1       -0.1659
@<TRIPOS>BOND
     1    16    17    1
     2    17    18    2
     3    17    19   am
     4    19     7    1
     5     7     8    1
     6     8     9    1
     7     9    10    1
     8    10    11   am
     9    11    12    2
    10    11    13   am
    11    13     1    1
    12     1     2    1
    13     2     3    1
    14     3     4    1
    15     4    21    1
    16    21    22    1
    17    22    23   ar
    18    23    24   ar
    19    24    25   ar
    20    25    27    1
    21    27    28   ar
    22    28    29   ar
    23    29    30   ar
    24    30    33    1
    25    33    34    1
    26    33    35    1
    27    33    36    1
    28    30    31   ar
    29    31    32   ar
    30    25    26   ar
    31     4     5    1
    32     5     6    1
    33    10    14    1
    34    14     7    1
    35     6     1    1
    36    26    22   ar
    37    32    27   ar
    38    19    20    1
    39    13    15    1
@<TRIPOS>MOLECULE
*****
 36 39 0 0 0
SMALL
GASTEIGER

@<TRIPOS>ATOM
      1 C         139.3147  139.9899  159.2353 C.3     1  UNL1        0.0758
      2 C         138.3067  139.5248  160.2440 C.3     1  UNL1        0.0370
      3 C         137.7765  140.4815  161.2704 C.3     1  UNL1        0.0741
      4 N         138.2542  141.9033  161.2880 N.3     1  UNL1       -0.2688
      5 C         139.2622  142.3684  160.2793 C.3     1  UNL1        0.0741
      6 C         139.7925  141.4117  159.2529 C.3     1  UNL1        0.0370
      7 C         142.9620  135.5861  156.3705 C.3     1  UNL1        0.0931
      8 C         141.8599  135.9813  155.4328 C.3     1  UNL1        0.0429
      9 C         141.0149  137.0133  156.1193 C.3     1  UNL1        0.0968
     10 N         141.5949  137.2559  157.4812 N.am    1  UNL1       -0.2625
     11 C         141.0646  138.2126  158.5077 C.2     1  UNL1        0.3040
     12 O         141.7539  138.3487  159.8329 O.2     1  UNL1       -0.2526
     13 N         139.8450  139.0332  158.2088 N.am    1  UNL1       -0.2903
     14 C         142.7982  136.3739  157.6365 C.3     1  UNL1        0.1144
     15 H         139.3926  138.9438  157.3390 H       1  UNL1        0.1509
     16 C         144.9104  132.1341  156.1799 C.3     1  UNL1        0.0946
     17 C         143.8336  133.1402  156.4591 C.2     1  UNL1        0.2230
     18 O         142.5516  132.7068  157.1061 O.2     1  UNL1       -0.2751
     19 N         144.0387  134.5800  156.0913 N.am    1  UNL1       -0.3042
     20 H         144.8801  134.8645  155.6666 H       1  UNL1        0.1494
     21 C         137.7239  142.8600  162.3145 C.3     1  UNL1        0.1007
     22 C         138.4831  143.0912  163.5873 C.ar    1  UNL1        0.0129
     23 C         138.7438  144.4216  164.2291 C.ar    1  UNL1        0.0176
     24 C         139.5368  144.1853  165.4802 C.ar    1  UNL1        0.0799
     25 N         139.7662  142.7087  165.6116 N.ar    1  UNL1       -0.3038
     26 C         139.1150  142.0326  164.4417 C.ar    1  UNL1        0.0772
     27 C         140.5153  142.0280  166.7186 C.ar    1  UNL1        0.0640
     28 C         141.8956  142.4878  167.0836 C.ar    1  UNL1        0.0175
     29 C         142.6447  141.8070  168.1906 C.ar    1  UNL1        0.0053
     30 C         142.0135  140.6664  168.9325 C.ar    1  UNL1        0.0715
     31 C         140.6332  140.2065  168.5675 C.ar    1  UNL1        0.0053
     32 C         139.8841  140.8873  167.4605 C.ar    1  UNL1        0.0175
     33 C         142.7626  139.9856  170.0394 C.3     1  UNL1        0.4186
     34 F         143.5117  139.3047  171.1464 F       1  UNL1       -0.1659
     35 F         143.7519  141.1128  170.0632 F       1  UNL1       -0.1659
     36 F         141.7732  138.8583  170.0157 F       1  UNL1       -0.1659
@<TRIPOS>BOND
     1    16    17    1
     2    17    18    2
     3    17    19   am
     4    19     7    1
     5     7     8    1
     6     8     9    1
     7     9    10    1
     8    10    11   am
     9    11    12    2
    10    11    13   am
    11    13     1    1
    12     1     2    1
    13     2     3    1
    14     3     4    1
    15     4    21    1
    16    21    22    1
    17    22    23   ar
    18    23    24   ar
    19    24    25   ar
    20    25    27    1
    21    27    28   ar
    22    28    29   ar
    23    29    30   ar
    24    30    33    1
    25    33    34    1
    26    33    35    1
    27    33    36    1
    28    30    31   ar
    29    31    32   ar
    30    25    26   ar
    31     4     5    1
    32     5     6    1
    33    10    14    1
    34    14     7    1
    35     6     1    1
    36    26    22   ar
    37    32    27   ar
    38    19    20    1
    39    13    15    1
@<TRIPOS>MOLECULE
*****
 36 39 0 0 0
SMALL
GASTEIGER

@<TRIPOS>ATOM
      1 C         140.5406  141.5508  158.5412 C.3     1  UNL1        0.0758
      2 C         139.8266  141.0823  159.7744 C.3     1  UNL1        0.0370
      3 C         140.4654  140.0612  160.6684 C.3     1  UNL1        0.0741
      4 N         141.8180  139.5086  160.3293 N.3     1  UNL1       -0.2688
      5 C         142.5319  139.9772  159.0961 C.3     1  UNL1        0.0741
      6 C         141.8932  140.9983  158.2021 C.3     1  UNL1        0.0370
      7 C         139.1594  147.1292  155.7348 C.3     1  UNL1        0.0931
      8 C         138.2820  146.0646  155.1457 C.3     1  UNL1        0.0429
      9 C         138.6184  144.7644  155.8140 C.3     1  UNL1        0.0968
     10 N         139.7036  145.0256  156.8161 N.am    1  UNL1       -0.2625
     11 C         140.3423  144.0045  157.7102 C.2     1  UNL1        0.3040
     12 O         141.4214  144.4159  158.6674 O.2     1  UNL1       -0.2526
     13 N         139.9019  142.5720  157.6471 N.am    1  UNL1       -0.2903
     14 C         140.0379  146.4870  156.7671 C.3     1  UNL1        0.1144
     15 H         139.1936  142.3020  157.0189 H       1  UNL1        0.1509
     16 C         138.6413  151.0581  155.9462 C.3     1  UNL1        0.0946
     17 C         138.6424  149.6064  156.3233 C.2     1  UNL1        0.2230
     18 O         138.1274  149.1798  157.6660 O.2     1  UNL1       -0.2751
     19 N         139.1583  148.5809  155.3577 N.am    1  UNL1       -0.3042
     20 H         139.4963  148.8608  154.4764 H       1  UNL1        0.1494
     21 C         142.4567  138.4875  161.2234 C.3     1  UNL1        0.1007
     22 C         142.2646  138.5663  162.7089 C.ar    1  UNL1        0.0129
     23 C         141.6286  137.5176  163.5725 C.ar    1  UNL1        0.0176
     24 C         141.6456  138.0108  164.9890 C.ar    1  UNL1        0.0799
     25 N         142.2921  139.3643  165.0009 N.ar    1  UNL1       -0.3038
     26 C         142.6746  139.7076  163.5917 C.ar    1  UNL1        0.0772
     27 C         142.5166  140.2235  166.2097 C.ar    1  UNL1        0.0640
     28 C         142.3523  139.6436  167.5832 C.ar    1  UNL1        0.0175
     29 C         142.5768  140.5028  168.7920 C.ar    1  UNL1        0.0053
     30 C         142.9657  141.9421  168.6273 C.ar    1  UNL1        0.0715
     31 C         143.1300  142.5222  167.2538 C.ar    1  UNL1        0.0053
     32 C         142.9055  141.6629  166.0450 C.ar    1  UNL1        0.0175
     33 C         143.1902  142.8013  169.8361 C.3     1  UNL1        0.4186
     34 F         143.4146  143.6607  171.0449 F       1  UNL1       -0.1659
     35 F         144.5737  142.2396  169.9785 F       1  UNL1       -0.1659
     36 F         141.8066  143.3632  169.6938 F       1  UNL1       -0.1659
@<TRIPOS>BOND
     1    16    17    1
     2    17    18    2
     3    17    19   am
     4    19     7    1
     5     7     8    1
     6     8     9    1
     7     9    10    1
     8    10    11   am
     9    11    12    2
    10    11    13   am
    11    13     1    1
    12     1     2    1
    13     2     3    1
    14     3     4    1
    15     4    21    1
    16    21    22    1
    17    22    23   ar
    18    23    24   ar
    19    24    25   ar
    20    25    27    1
    21    27    28   ar
    22    28    29   ar
    23    29    30   ar
    24    30    33    1
    25    33    34    1
    26    33    35    1
    27    33    36    1
    28    30    31   ar
    29    31    32   ar
    30    25    26   ar
    31     4     5    1
    32     5     6    1
    33    10    14    1
    34    14     7    1
    35     6     1    1
    36    26    22   ar
    37    32    27   ar
    38    19    20    1
    39    13    15    1
@<TRIPOS>MOLECULE
*****
 36 39 0 0 0
SMALL
GASTEIGER

@<TRIPOS>ATOM
      1 C         143.5005  140.2782  158.7948 C.3     1  UNL1        0.0758
      2 C         144.0648  140.1281  160.1765 C.3     1  UNL1        0.0370
      3 C         143.9132  141.2388  161.1732 C.3     1  UNL1        0.0741
      4 N         143.1973  142.4995  160.7883 N.3     1  UNL1       -0.2688
      5 C         142.6331  142.6495  159.4066 C.3     1  UNL1        0.0741
      6 C         142.7847  141.5389  158.4099 C.3     1  UNL1        0.0370
      7 C         142.2479  135.0987  155.2585 C.3     1  UNL1        0.0931
      8 C         143.6131  135.6067  154.9001 C.3     1  UNL1        0.0429
      9 C         143.8908  136.8199  155.7374 C.3     1  UNL1        0.0968
     10 N         142.6972  137.0617  156.6132 N.am    1  UNL1       -0.2625
     11 C         142.5456  138.1724  157.6100 C.2     1  UNL1        0.3040
     12 O         141.2876  138.2878  158.4187 O.2     1  UNL1       -0.2526
     13 N         143.6521  139.1676  157.7980 N.am    1  UNL1       -0.2903
     14 C         141.6819  135.9980  156.3172 C.3     1  UNL1        0.1144
     15 H         144.4778  139.0918  157.2672 H       1  UNL1        0.1509
     16 C         140.9110  131.3914  154.7914 C.3     1  UNL1        0.0946
     17 C         141.5907  132.5884  155.3871 C.2     1  UNL1        0.2230
     18 O         142.2932  132.4723  156.7074 O.2     1  UNL1       -0.2751
     19 N         141.5682  133.9017  154.6627 N.am    1  UNL1       -0.3042
     20 H         141.1072  133.9780  153.7962 H       1  UNL1        0.1494
     21 C         143.0458  143.6101  161.7851 C.3     1  UNL1        0.1007
     22 C         143.1965  143.3283  163.2506 C.ar    1  UNL1        0.0129
     23 C         144.3610  143.7240  164.1093 C.ar    1  UNL1        0.0176
     24 C         144.0934  143.2416  165.5042 C.ar    1  UNL1        0.0799
     25 N         142.7634  142.5478  165.5076 N.ar    1  UNL1       -0.3038
     26 C         142.2092  142.6014  164.1148 C.ar    1  UNL1        0.0772
     27 C         142.1037  141.9120  166.6952 C.ar    1  UNL1        0.0640
     28 C         142.5737  140.5757  167.1882 C.ar    1  UNL1        0.0175
     29 C         141.9139  139.9399  168.3758 C.ar    1  UNL1        0.0053
     30 C         140.7842  140.6405  169.0705 C.ar    1  UNL1        0.0715
     31 C         140.3142  141.9770  168.5776 C.ar    1  UNL1        0.0053
     32 C         140.9739  142.6127  167.3900 C.ar    1  UNL1        0.0175
     33 C         140.1245  140.0048  170.2582 C.3     1  UNL1        0.4186
     34 F         139.4646  139.3691  171.4458 F       1  UNL1       -0.1659
     35 F         141.2563  139.0261  170.3630 F       1  UNL1       -0.1659
     36 F         138.9925  140.9835  170.1533 F       1  UNL1       -0.1659
@<TRIPOS>BOND
     1    16    17    1
     2    17    18    2
     3    17    19   am
     4    19     7    1
     5     7     8    1
     6     8     9    1
     7     9    10    1
     8    10    11   am
     9    11    12    2
    10    11    13   am
    11    13     1    1
    12     1     2    1
    13     2     3    1
    14     3     4    1
    15     4    21    1
    16    21    22    1
    17    22    23   ar
    18    23    24   ar
    19    24    25   ar
    20    25    27    1
    21    27    28   ar
    22    28    29   ar
    23    29    30   ar
    24    30    33    1
    25    33    34    1
    26    33    35    1
    27    33    36    1
    28    30    31   ar
    29    31    32   ar
    30    25    26   ar
    31     4     5    1
    32     5     6    1
    33    10    14    1
    34    14     7    1
    35     6     1    1
    36    26    22   ar
    37    32    27   ar
    38    19    20    1
    39    13    15    1
@<TRIPOS>MOLECULE
*****
 36 39 0 0 0
SMALL
GASTEIGER

@<TRIPOS>ATOM
      1 C         140.4782  139.7418  158.0811 C.3     1  UNL1        0.0758
      2 C         141.4076  140.8867  158.3553 C.3     1  UNL1        0.0370
      3 C         140.9687  142.0127  159.2438 C.3     1  UNL1        0.0741
      4 N         139.6003  141.9938  159.8580 N.3     1  UNL1       -0.2688
      5 C         138.6709  140.8489  159.5837 C.3     1  UNL1        0.0741
      6 C         139.1098  139.7229  158.6952 C.3     1  UNL1        0.0370
      7 C         143.5127  134.5260  155.9622 C.3     1  UNL1        0.0931
      8 C         142.5888  135.0149  154.8863 C.3     1  UNL1        0.0429
      9 C         141.8859  136.2369  155.3989 C.3     1  UNL1        0.0968
     10 N         142.3754  136.5032  156.7915 N.am    1  UNL1       -0.2625
     11 C         141.9365  137.6293  157.6800 C.2     1  UNL1        0.3040
     12 O         142.5172  137.7690  159.0560 O.2     1  UNL1       -0.2526
     13 N         140.9171  138.6157  157.1925 N.am    1  UNL1       -0.2903
     14 C         143.3808  135.4459  157.1397 C.3     1  UNL1        0.1144
     15 H         140.5360  138.5240  156.2894 H       1  UNL1        0.1509
     16 C         144.8088  130.7843  156.2260 C.3     1  UNL1        0.0946
     17 C         143.9107  131.9826  156.3124 C.2     1  UNL1        0.2230
     18 O         142.5125  131.8358  156.8353 O.2     1  UNL1       -0.2751
     19 N         144.4108  133.3278  155.8758 N.am    1  UNL1       -0.3042
     20 H         145.3284  133.4241  155.5326 H       1  UNL1        0.1494
     21 C         139.1614  143.1199  160.7465 C.3     1  UNL1        0.1007
     22 C         139.6698  143.2057  162.1550 C.ar    1  UNL1        0.0129
     23 C         140.6167  144.2392  162.6891 C.ar    1  UNL1        0.0176
     24 C         140.8527  143.9454  164.1410 C.ar    1  UNL1        0.0799
     25 N         140.0518  142.7302  164.5042 N.ar    1  UNL1       -0.3038
     26 C         139.3207  142.2731  163.2768 C.ar    1  UNL1        0.0772
     27 C         139.9924  142.0855  165.8573 C.ar    1  UNL1        0.0640
     28 C         139.4355  140.7005  166.0043 C.ar    1  UNL1        0.0175
     29 C         139.3760  140.0558  167.3573 C.ar    1  UNL1        0.0053
     30 C         139.8735  140.7959  168.5633 C.ar    1  UNL1        0.0715
     31 C         140.4304  142.1809  168.4164 C.ar    1  UNL1        0.0053
     32 C         140.4899  142.8257  167.0633 C.ar    1  UNL1        0.0175
     33 C         139.8141  140.1512  169.9164 C.3     1  UNL1        0.4186
     34 F         139.7547  139.5063  171.2694 F       1  UNL1       -0.1659
     35 F         138.5015  140.8273  170.1809 F       1  UNL1       -0.1659
     36 F         141.1267  139.4750  169.6518 F       1  UNL1       -0.1659
@<TRIPOS>BOND
     1    16    17    1
     2    17    18    2
     3    17    19   am
     4    19     7    1
     5     7     8    1
     6     8     9    1
     7     9    10    1
     8    10    11   am
     9    11    12    2
    10    11    13   am
    11    13     1    1
    12     1     2    1
    13     2     3    1
    14     3     4    1
    15     4    21    1
    16    21    22    1
    17    22    23   ar
    18    23    24   ar
    19    24    25   ar
    20    25    27    1
    21    27    28   ar
    22    28    29   ar
    23    29    30   ar
    24    30    33    1
    25    33    34    1
    26    33    35    1
    27    33    36    1
    28    30    31   ar
    29    31    32   ar
    30    25    26   ar
    31     4     5    1
    32     5     6    1
    33    10    14    1
    34    14     7    1
    35     6     1    1
    36    26    22   ar
    37    32    27   ar
    38    19    20    1
    39    13    15    1
@<TRIPOS>MOLECULE
*****
 36 39 0 0 0
SMALL
GASTEIGER

@<TRIPOS>ATOM
      1 C         139.5165  144.5006  156.6140 C.3     1  UNL1        0.0758
      2 C         138.3723  143.5546  156.4001 C.3     1  UNL1        0.0370
      3 C         138.0277  142.5441  157.4538 C.3     1  UNL1        0.0741
      4 N         138.8273  142.4797  158.7212 N.3     1  UNL1       -0.2688
      5 C         139.9715  143.4257  158.9350 C.3     1  UNL1        0.0741
      6 C         140.3161  144.4361  157.8814 C.3     1  UNL1        0.0370
      7 C         140.0911  150.0643  153.5129 C.3     1  UNL1        0.0931
      8 C         140.6895  148.9790  152.6677 C.3     1  UNL1        0.0429
      9 C         140.5466  147.6826  153.4087 C.3     1  UNL1        0.0968
     10 N         139.8599  147.9667  154.7117 N.am    1  UNL1       -0.2625
     11 C         139.5153  146.9562  155.7653 C.2     1  UNL1        0.3040
     12 O         138.8248  147.3908  157.0240 O.2     1  UNL1       -0.2526
     13 N         139.8611  145.5111  155.5603 N.am    1  UNL1       -0.2903
     14 C         139.5784  149.4386  154.7761 C.3     1  UNL1        0.1144
     15 H         140.3143  145.2259  154.7342 H       1  UNL1        0.1509
     16 C         140.9293  153.9414  153.3913 C.3     1  UNL1        0.0946
     17 C         141.0022  152.4861  153.7470 C.2     1  UNL1        0.2230
     18 O         142.0590  151.9971  154.6924 O.2     1  UNL1       -0.2751
     19 N         140.0183  151.5196  153.1572 N.am    1  UNL1       -0.3042
     20 H         139.3246  151.8405  152.5367 H       1  UNL1        0.1494
     21 C         138.4826  141.4691  159.7749 C.3     1  UNL1        0.1007
     22 C         138.4611  141.8701  161.2201 C.ar    1  UNL1        0.0129
     23 C         137.9442  143.1674  161.7676 C.ar    1  UNL1        0.0176
     24 C         138.1164  143.1432  163.2574 C.ar    1  UNL1        0.0799
     25 N         138.7398  141.8309  163.6308 N.ar    1  UNL1       -0.3038
     26 C         138.9528  141.0441  162.3716 C.ar    1  UNL1        0.0772
     27 C         139.0888  141.3840  165.0195 C.ar    1  UNL1        0.0640
     28 C         139.9201  142.2649  165.9042 C.ar    1  UNL1        0.0175
     29 C         140.2691  141.8180  167.2929 C.ar    1  UNL1        0.0053
     30 C         139.7869  140.4901  167.7968 C.ar    1  UNL1        0.0715
     31 C         138.9556  139.6091  166.9121 C.ar    1  UNL1        0.0053
     32 C         138.6065  140.0560  165.5234 C.ar    1  UNL1        0.0175
     33 C         140.1359  140.0431  169.1854 C.3     1  UNL1        0.4186
     34 F         140.4849  139.5962  170.5742 F       1  UNL1       -0.1659
     35 F         141.4363  139.4913  168.6810 F       1  UNL1       -0.1659
     36 F         138.8355  140.5950  169.6900 F       1  UNL1       -0.1659
@<TRIPOS>BOND
     1    16    17    1
     2    17    18    2
     3    17    19   am
     4    19     7    1
     5     7     8    1
     6     8     9    1
     7     9    10    1
     8    10    11   am
     9    11    12    2
    10    11    13   am
    11    13     1    1
    12     1     2    1
    13     2     3    1
    14     3     4    1
    15     4    21    1
    16    21    22    1
    17    22    23   ar
    18    23    24   ar
    19    24    25   ar
    20    25    27    1
    21    27    28   ar
    22    28    29   ar
    23    29    30   ar
    24    30    33    1
    25    33    34    1
    26    33    35    1
    27    33    36    1
    28    30    31   ar
    29    31    32   ar
    30    25    26   ar
    31     4     5    1
    32     5     6    1
    33    10    14    1
    34    14     7    1
    35     6     1    1
    36    26    22   ar
    37    32    27   ar
    38    19    20    1
    39    13    15    1
@<TRIPOS>MOLECULE
*****
 36 39 0 0 0
SMALL
GASTEIGER

@<TRIPOS>ATOM
      1 C         140.7998  139.9182  158.2537 C.3     1  UNL1        0.0758
      2 C         141.6545  141.1463  158.3585 C.3     1  UNL1        0.0370
      3 C         142.7327  141.2232  159.3985 C.3     1  UNL1        0.0741
      4 N         142.9560  140.0719  160.3337 N.3     1  UNL1       -0.2688
      5 C         142.1013  138.8438  160.2289 C.3     1  UNL1        0.0741
      6 C         141.0232  138.7669  159.1889 C.3     1  UNL1        0.0370
      7 C         135.2800  140.8718  155.1675 C.3     1  UNL1        0.0931
      8 C         136.1331  139.9462  154.3516 C.3     1  UNL1        0.0429
      9 C         137.4221  139.7333  155.0887 C.3     1  UNL1        0.0968
     10 N         137.3656  140.5274  156.3600 N.am    1  UNL1       -0.2625
     11 C         138.4438  140.6043  157.4001 C.2     1  UNL1        0.3040
     12 O         138.2441  141.4444  158.6266 O.2     1  UNL1       -0.2526
     13 N         139.7216  139.8412  157.2136 N.am    1  UNL1       -0.2903
     14 C         136.0418  141.2310  156.4087 C.3     1  UNL1        0.1144
     15 H         139.8527  139.2899  156.4086 H       1  UNL1        0.1509
     16 C         131.3719  141.5381  155.3458 C.3     1  UNL1        0.0946
     17 C         132.7454  141.0563  155.7077 C.2     1  UNL1        0.2230
     18 O         132.9582  140.2771  156.9717 O.2     1  UNL1       -0.2751
     19 N         133.9065  141.3536  154.8056 N.am    1  UNL1       -0.3042
     20 H         133.7669  141.8650  153.9760 H       1  UNL1        0.1494
     21 C         144.0342  140.1489  161.3738 C.3     1  UNL1        0.1007
     22 C         143.8880  141.0833  162.5380 C.ar    1  UNL1        0.0129
     23 C         144.6597  142.3514  162.7530 C.ar    1  UNL1        0.0176
     24 C         144.1930  142.9656  164.0394 C.ar    1  UNL1        0.0799
     25 N         143.1328  142.0770  164.6196 N.ar    1  UNL1       -0.3038
     26 C         142.9443  140.9137  163.6916 C.ar    1  UNL1        0.0772
     27 C         142.3914  142.3107  165.9024 C.ar    1  UNL1        0.0640
     28 C         140.9475  142.7157  165.8710 C.ar    1  UNL1        0.0175
     29 C         140.2060  142.9494  167.1538 C.ar    1  UNL1        0.0053
     30 C         140.9085  142.7781  168.4680 C.ar    1  UNL1        0.0715
     31 C         142.3524  142.3731  168.4994 C.ar    1  UNL1        0.0053
     32 C         143.0939  142.1394  167.2166 C.ar    1  UNL1        0.0175
     33 C         140.1670  143.0118  169.7508 C.3     1  UNL1        0.4186
     34 F         139.4256  143.2456  171.0336 F       1  UNL1       -0.1659
     35 F         139.5062  141.6723  169.6129 F       1  UNL1       -0.1659
     36 F         140.8279  144.3514  169.8887 F       1  UNL1       -0.1659
@<TRIPOS>BOND
     1    16    17    1
     2    17    18    2
     3    17    19   am
     4    19     7    1
     5     7     8    1
     6     8     9    1
     7     9    10    1
     8    10    11   am
     9    11    12    2
    10    11    13   am
    11    13     1    1
    12     1     2    1
    13     2     3    1
    14     3     4    1
    15     4    21    1
    16    21    22    1
    17    22    23   ar
    18    23    24   ar
    19    24    25   ar
    20    25    27    1
    21    27    28   ar
    22    28    29   ar
    23    29    30   ar
    24    30    33    1
    25    33    34    1
    26    33    35    1
    27    33    36    1
    28    30    31   ar
    29    31    32   ar
    30    25    26   ar
    31     4     5    1
    32     5     6    1
    33    10    14    1
    34    14     7    1
    35     6     1    1
    36    26    22   ar
    37    32    27   ar
    38    19    20    1
    39    13    15    1
@<TRIPOS>MOLECULE
*****
 36 39 0 0 0
SMALL
GASTEIGER

@<TRIPOS>ATOM
      1 C         141.0295  142.0413  158.4742 C.3     1  UNL1        0.0758
      2 C         140.1248  141.1433  159.2648 C.3     1  UNL1        0.0370
      3 C         140.7071  140.1537  160.2300 C.3     1  UNL1        0.0741
      4 N         142.1941  140.0622  160.4045 N.3     1  UNL1       -0.2688
      5 C         143.0988  140.9602  159.6139 C.3     1  UNL1        0.0741
      6 C         142.5165  141.9498  158.6488 C.3     1  UNL1        0.0370
      7 C         138.8460  147.5140  155.9874 C.3     1  UNL1        0.0931
      8 C         138.7227  146.4337  154.9541 C.3     1  UNL1        0.0429
      9 C         139.2385  145.1586  155.5528 C.3     1  UNL1        0.0968
     10 N         139.6804  145.4510  156.9560 N.am    1  UNL1       -0.2625
     11 C         140.2628  144.4614  157.9213 C.2     1  UNL1        0.3040
     12 O         140.6606  144.9022  159.2987 O.2     1  UNL1       -0.2526
     13 N         140.4472  143.0310  157.5090 N.am    1  UNL1       -0.2903
     14 C         139.4379  146.9067  157.2247 C.3     1  UNL1        0.1144
     15 H         140.1860  142.7417  156.6049 H       1  UNL1        0.1509
     16 C         138.8659  151.2902  154.7669 C.3     1  UNL1        0.0946
     17 C         139.2646  149.8546  154.9404 C.2     1  UNL1        0.2230
     18 O         140.4805  149.3240  154.2404 O.2     1  UNL1       -0.2751
     19 N         138.4474  148.9495  155.8139 N.am    1  UNL1       -0.3042
     20 H         137.6493  149.2978  156.2734 H       1  UNL1        0.1494
     21 C         142.7764  139.0725  161.3697 C.3     1  UNL1        0.1007
     22 C         142.9901  139.4594  162.8031 C.ar    1  UNL1        0.0129
     23 C         144.2591  139.2851  163.5836 C.ar    1  UNL1        0.0176
     24 C         144.0256  139.8065  164.9705 C.ar    1  UNL1        0.0799
     25 N         142.6122  140.3031  165.0472 N.ar    1  UNL1       -0.3038
     26 C         141.9723  140.0885  163.7077 C.ar    1  UNL1        0.0772
     27 C         141.9543  140.9079  166.2519 C.ar    1  UNL1        0.0640
     28 C         141.2133  142.2062  166.1293 C.ar    1  UNL1        0.0175
     29 C         140.5554  142.8111  167.3340 C.ar    1  UNL1        0.0053
     30 C         140.6386  142.1176  168.6613 C.ar    1  UNL1        0.0715
     31 C         141.3796  140.8193  168.7841 C.ar    1  UNL1        0.0053
     32 C         142.0375  140.2144  167.5794 C.ar    1  UNL1        0.0175
     33 C         139.9807  142.7225  169.8660 C.3     1  UNL1        0.4186
     34 F         139.3227  143.3273  171.0708 F       1  UNL1       -0.1659
     35 F         140.7844  143.9747  169.6763 F       1  UNL1       -0.1659
     36 F         139.1769  141.4703  170.0559 F       1  UNL1       -0.1659
@<TRIPOS>BOND
     1    16    17    1
     2    17    18    2
     3    17    19   am
     4    19     7    1
     5     7     8    1
     6     8     9    1
     7     9    10    1
     8    10    11   am
     9    11    12    2
    10    11    13   am
    11    13     1    1
    12     1     2    1
    13     2     3    1
    14     3     4    1
    15     4    21    1
    16    21    22    1
    17    22    23   ar
    18    23    24   ar
    19    24    25   ar
    20    25    27    1
    21    27    28   ar
    22    28    29   ar
    23    29    30   ar
    24    30    33    1
    25    33    34    1
    26    33    35    1
    27    33    36    1
    28    30    31   ar
    29    31    32   ar
    30    25    26   ar
    31     4     5    1
    32     5     6    1
    33    10    14    1
    34    14     7    1
    35     6     1    1
    36    26    22   ar
    37    32    27   ar
    38    19    20    1
    39    13    15    1
