@<TRIPOS>MOLECULE
*****
 36 39 0 0 0
SMALL
GASTEIGER

@<TRIPOS>ATOM
      1 C         142.3519  141.6575  163.2545 C.ar    1  UNL1        0.1170
      2 C         141.8523  142.4148  162.0600 C.ar    1  UNL1        0.0302
      3 C         142.8217  143.1293  161.1657 C.ar    1  UNL1        0.1226
      4 C         144.2907  143.0866  161.4660 C.ar    1  UNL1        0.0230
      5 C         144.7903  142.3293  162.6606 C.ar    1  UNL1        0.0385
      6 C         143.8209  141.6148  163.5548 C.ar    1  UNL1        0.1456
      7 C         140.1329  140.6130  167.9883 C.3     1  UNL1        0.1534
      8 N         139.0316  139.6519  168.3250 N.3     1  UNL1       -0.2825
      9 C         138.6056  138.9726  167.0573 C.3     1  UNL1        0.0851
     10 C         137.5304  137.9343  166.9318 C.3     1  UNL1        0.0193
     11 C         139.4436  139.5139  165.9371 C.3     1  UNL1        0.2171
     12 C         139.4691  139.2146  164.4676 C.2     1  UNL1        0.3712
     13 O         138.5251  138.2007  163.8922 O.2     1  UNL1       -0.2412
     14 N         140.4385  139.9291  163.5734 N.am    1  UNL1        0.0292
     15 C         141.3824  140.9430  164.1488 C.2     1  UNL1        0.3346
     16 N         141.3569  141.2423  165.6183 N.pl3   1  UNL1       -0.1513
     17 N         140.3875  140.5277  166.5125 N.3     1  UNL1       -0.1103
     18 H         138.2429  140.1569  168.7290 H       1  UNL1        0.1245
     19 H         141.9765  141.9077  165.9960 H       1  UNL1        0.3180
     20 C         140.8532  141.5032  168.9573 C.3     1  UNL1        0.0362
     21 C         140.4129  143.9137  169.8210 C.3     1  UNL1        0.0001
     22 C         140.0780  142.4515  169.8233 C.3     1  UNL1        0.0029
     23 S         142.3222  143.8866  159.9711 S.O2    1  UNL1        0.0634
     24 O         141.1737  144.4088  160.7825 O.2     1  UNL1       -0.1528
     25 O         143.4706  143.3644  159.1598 O.2     1  UNL1       -0.1528
     26 N         141.8226  144.6438  158.7766 N.3     1  UNL1       -0.1527
     27 C         142.5691  144.5727  157.4775 C.3     1  UNL1        0.1131
     28 C         142.0695  145.3300  156.2829 C.3     1  UNL1        0.0915
     29 N         140.8234  146.1584  156.3875 N.3     1  UNL1       -0.2702
     30 C         140.0769  146.2295  157.6866 C.3     1  UNL1        0.0915
     31 C         140.5764  145.4723  158.8811 C.3     1  UNL1        0.1131
     32 C         140.3238  146.9156  155.1930 C.3     1  UNL1        0.0722
     33 C         138.9735  147.5678  155.2293 C.3     1  UNL1        0.0188
     34 O         144.3204  140.8575  164.7494 O.3     1  UNL1       -0.4752
     35 C         144.4372  139.3630  164.6950 C.3     1  UNL1        0.2055
     36 C         143.7358  138.5182  165.7169 C.3     1  UNL1        0.0512
@<TRIPOS>BOND
     1    21    22    1
     2    22    20    1
     3    20     7    1
     4     7     8    1
     5     8     9    1
     6     9    10    1
     7     9    11    1
     8    11    12    1
     9    12    13    2
    10    12    14    1
    11    14    15    2
    12    15     1    1
    13     1     2   ar
    14     2     3   ar
    15     3    23    1
    16    23    24    2
    17    23    25    2
    18    23    26    1
    19    26    27    1
    20    27    28    1
    21    28    29    1
    22    29    32    1
    23    32    33    1
    24    29    30    1
    25    30    31    1
    26     3     4   ar
    27     4     5   ar
    28     5     6   ar
    29     6    34    1
    30    34    35    1
    31    35    36    1
    32    15    16    1
    33    16    17    1
    34    17     7    1
    35    17    11    1
    36     6     1   ar
    37    31    26    1
    38     8    18    1
    39    16    19    1
@<TRIPOS>MOLECULE
*****
 36 39 0 0 0
SMALL
GASTEIGER

@<TRIPOS>ATOM
      1 C         141.2802  140.8767  164.2782 C.ar    1  UNL1        0.1170
      2 C         141.3493  140.0023  163.0614 C.ar    1  UNL1        0.0302
      3 C         141.0041  140.5636  161.7139 C.ar    1  UNL1        0.1226
      4 C         140.5898  141.9994  161.5832 C.ar    1  UNL1        0.0230
      5 C         140.5207  142.8738  162.8001 C.ar    1  UNL1        0.0385
      6 C         140.8660  142.3125  164.1475 C.ar    1  UNL1        0.1456
      7 C         140.6242  140.4249  169.5498 C.3     1  UNL1        0.1534
      8 N         141.3820  139.5767  170.5277 N.3     1  UNL1       -0.2825
      9 C         142.4275  138.8153  169.7681 C.3     1  UNL1        0.0851
     10 C         143.4118  137.8463  170.3532 C.3     1  UNL1        0.0193
     11 C         142.3160  139.1928  168.3207 C.3     1  UNL1        0.2171
     12 C         143.0852  138.7593  167.1082 C.2     1  UNL1        0.3712
     13 O         144.1997  137.7645  167.2431 O.2     1  UNL1       -0.2412
     14 N         142.7400  139.3206  165.7607 N.am    1  UNL1        0.0292
     15 C         141.6255  140.3154  165.6258 C.2     1  UNL1        0.3346
     16 N         140.8562  140.7490  166.8383 N.pl3   1  UNL1       -0.1513
     17 N         141.2015  140.1877  168.1857 N.3     1  UNL1       -0.1103
     18 H         140.7453  138.9258  170.9874 H       1  UNL1        0.1245
     19 H         140.1247  141.4019  166.7497 H       1  UNL1        0.3180
     20 C         139.4886  141.3483  169.8781 C.3     1  UNL1        0.0362
     21 C         140.4870  143.7385  169.6771 C.3     1  UNL1        0.0001
     22 C         139.7663  142.6949  170.4780 C.3     1  UNL1        0.0029
     23 S         141.0731  139.6892  160.4971 S.O2    1  UNL1        0.0634
     24 O         141.6744  138.5897  161.3214 O.2     1  UNL1       -0.1528
     25 O         140.4719  140.7888  159.6728 O.2     1  UNL1       -0.1528
     26 N         141.1422  138.8148  159.2803 N.3     1  UNL1       -0.1527
     27 C         142.4162  138.0986  158.9427 C.3     1  UNL1        0.1131
     28 C         142.4852  137.2242  157.7259 C.3     1  UNL1        0.0915
     29 N         141.2803  137.0660  156.8467 N.3     1  UNL1       -0.2702
     30 C         140.0063  137.7822  157.1843 C.3     1  UNL1        0.0915
     31 C         139.9372  138.6566  158.4010 C.3     1  UNL1        0.1131
     32 C         141.3493  136.1916  155.6299 C.3     1  UNL1        0.0722
     33 C         142.2193  134.9696  155.6328 C.3     1  UNL1        0.0188
     34 O         140.7969  143.1869  165.3644 O.3     1  UNL1       -0.4752
     35 C         139.4678  143.6626  165.8717 C.3     1  UNL1        0.2055
     36 C         138.8766  144.9368  165.3456 C.3     1  UNL1        0.0512
@<TRIPOS>BOND
     1    21    22    1
     2    22    20    1
     3    20     7    1
     4     7     8    1
     5     8     9    1
     6     9    10    1
     7     9    11    1
     8    11    12    1
     9    12    13    2
    10    12    14    1
    11    14    15    2
    12    15     1    1
    13     1     2   ar
    14     2     3   ar
    15     3    23    1
    16    23    24    2
    17    23    25    2
    18    23    26    1
    19    26    27    1
    20    27    28    1
    21    28    29    1
    22    29    32    1
    23    32    33    1
    24    29    30    1
    25    30    31    1
    26     3     4   ar
    27     4     5   ar
    28     5     6   ar
    29     6    34    1
    30    34    35    1
    31    35    36    1
    32    15    16    1
    33    16    17    1
    34    17     7    1
    35    17    11    1
    36     6     1   ar
    37    31    26    1
    38     8    18    1
    39    16    19    1
@<TRIPOS>MOLECULE
*****
 36 39 0 0 0
SMALL
GASTEIGER

@<TRIPOS>ATOM
      1 C         141.3100  142.5675  163.5509 C.ar    1  UNL1        0.1170
      2 C         141.7675  141.6471  162.4585 C.ar    1  UNL1        0.0302
      3 C         141.7128  142.0953  161.0280 C.ar    1  UNL1        0.1226
      4 C         141.2006  143.4640  160.6901 C.ar    1  UNL1        0.0230
      5 C         140.7431  144.3845  161.7826 C.ar    1  UNL1        0.0385
      6 C         140.7978  143.9362  163.2130 C.ar    1  UNL1        0.1456
      7 C         139.4749  139.8498  167.7545 C.3     1  UNL1        0.1534
      8 N         140.0325  139.7682  169.1446 N.3     1  UNL1       -0.2825
      9 C         141.2682  140.6169  169.1988 C.3     1  UNL1        0.0851
     10 C         142.1442  140.8232  170.3988 C.3     1  UNL1        0.0193
     11 C         141.4742  141.2229  167.8422 C.3     1  UNL1        0.2171
     12 C         142.5279  142.1451  167.3044 C.2     1  UNL1        0.3712
     13 O         143.6363  142.6192  168.1970 O.2     1  UNL1       -0.2412
     14 N         142.4731  142.5933  165.8740 N.am    1  UNL1        0.0292
     15 C         141.3647  142.1193  164.9814 C.2     1  UNL1        0.3346
     16 N         140.3111  141.1970  165.5192 N.pl3   1  UNL1       -0.1513
     17 N         140.3659  140.7488  166.9496 N.3     1  UNL1       -0.1103
     18 H         140.2669  138.8008  169.3673 H       1  UNL1        0.1245
     19 H         139.5836  140.8859  164.9333 H       1  UNL1        0.3180
     20 C         138.2425  139.1545  167.2567 C.3     1  UNL1        0.0362
     21 C         139.0510  137.6666  165.2862 C.3     1  UNL1        0.0001
     22 C         138.1457  138.7373  165.8191 C.3     1  UNL1        0.0029
     23 S         142.1703  141.1748  159.9356 S.O2    1  UNL1        0.0634
     24 O         143.0424  140.4463  160.9147 O.2     1  UNL1       -0.1528
     25 O         141.2981  141.9033  158.9566 O.2     1  UNL1       -0.1528
     26 N         142.6278  140.2544  158.8432 N.3     1  UNL1       -0.1527
     27 C         142.2646  138.7996  158.8871 C.3     1  UNL1        0.1131
     28 C         142.7221  137.8792  157.7946 C.3     1  UNL1        0.0915
     29 N         143.5428  138.4134  156.6583 N.3     1  UNL1       -0.2702
     30 C         143.9060  139.8681  156.6145 C.3     1  UNL1        0.0915
     31 C         143.4485  140.7886  157.7069 C.3     1  UNL1        0.1131
     32 C         144.0003  137.4929  155.5659 C.3     1  UNL1        0.0722
     33 C         143.9702  136.0079  155.7748 C.3     1  UNL1        0.0188
     34 O         140.3403  144.8567  164.3055 O.3     1  UNL1       -0.4752
     35 C         138.9157  144.8158  164.7731 C.3     1  UNL1        0.2055
     36 C         137.9599  143.8233  164.1803 C.3     1  UNL1        0.0512
@<TRIPOS>BOND
     1    21    22    1
     2    22    20    1
     3    20     7    1
     4     7     8    1
     5     8     9    1
     6     9    10    1
     7     9    11    1
     8    11    12    1
     9    12    13    2
    10    12    14    1
    11    14    15    2
    12    15     1    1
    13     1     2   ar
    14     2     3   ar
    15     3    23    1
    16    23    24    2
    17    23    25    2
    18    23    26    1
    19    26    27    1
    20    27    28    1
    21    28    29    1
    22    29    32    1
    23    32    33    1
    24    29    30    1
    25    30    31    1
    26     3     4   ar
    27     4     5   ar
    28     5     6   ar
    29     6    34    1
    30    34    35    1
    31    35    36    1
    32    15    16    1
    33    16    17    1
    34    17     7    1
    35    17    11    1
    36     6     1   ar
    37    31    26    1
    38     8    18    1
    39    16    19    1
@<TRIPOS>MOLECULE
*****
 36 39 0 0 0
SMALL
GASTEIGER

@<TRIPOS>ATOM
      1 C         142.1385  142.5263  158.8385 C.ar    1  UNL1        0.1170
      2 C         142.2730  141.0645  158.5303 C.ar    1  UNL1        0.0302
      3 C         143.0688  140.6192  157.3393 C.ar    1  UNL1        0.1226
      4 C         143.7301  141.6358  156.4565 C.ar    1  UNL1        0.0230
      5 C         143.5955  143.0976  156.7647 C.ar    1  UNL1        0.0385
      6 C         142.7997  143.5429  157.9556 C.ar    1  UNL1        0.1456
      7 C         141.6103  144.8822  163.5919 C.3     1  UNL1        0.1534
      8 N         140.3793  145.0502  164.4324 N.3     1  UNL1       -0.2825
      9 C         139.2303  144.4198  163.7028 C.3     1  UNL1        0.0851
     10 C         137.8098  144.3579  164.1808 C.3     1  UNL1        0.0193
     11 C         139.7511  143.8622  162.4114 C.3     1  UNL1        0.2171
     12 C         139.0759  143.1311  161.2890 C.2     1  UNL1        0.3712
     13 O         137.6050  142.8454  161.3576 O.2     1  UNL1       -0.2412
     14 N         139.8717  142.6859  160.0981 N.am    1  UNL1        0.0292
     15 C         141.3427  142.9716  160.0295 C.2     1  UNL1        0.3346
     16 N         142.0178  143.7027  161.1518 N.pl3   1  UNL1       -0.1513
     17 N         141.2220  144.1479  162.3428 N.3     1  UNL1       -0.1103
     18 H         140.1935  146.0422  164.5797 H       1  UNL1        0.1245
     19 H         142.9832  143.8902  161.1068 H       1  UNL1        0.3180
     20 C         142.9877  145.3638  163.9393 C.3     1  UNL1        0.0362
     21 C         144.2255  143.4586  165.1997 C.3     1  UNL1        0.0001
     22 C         144.1236  144.3880  164.0267 C.3     1  UNL1        0.0029
     23 S         143.2033  139.1574  157.0311 S.O2    1  UNL1        0.0634
     24 O         142.7399  139.4107  155.6272 O.2     1  UNL1       -0.1528
     25 O         143.6667  138.9041  158.4350 O.2     1  UNL1       -0.1528
     26 N         143.3379  137.6956  156.7230 N.3     1  UNL1       -0.1527
     27 C         144.0368  137.2542  155.4713 C.3     1  UNL1        0.1131
     28 C         144.1713  135.7923  155.1632 C.3     1  UNL1        0.0915
     29 N         143.6069  134.7719  156.1067 N.3     1  UNL1       -0.2702
     30 C         142.9080  135.2134  157.3583 C.3     1  UNL1        0.0915
     31 C         142.7734  136.6752  157.6665 C.3     1  UNL1        0.1131
     32 C         143.7414  133.3101  155.7985 C.3     1  UNL1        0.0722
     33 C         144.6686  132.4548  156.6101 C.3     1  UNL1        0.0188
     34 O         142.6652  145.0047  158.2638 O.3     1  UNL1       -0.4752
     35 C         141.7845  145.8723  157.4143 C.3     1  UNL1        0.2055
     36 C         140.3023  145.8891  157.6438 C.3     1  UNL1        0.0512
@<TRIPOS>BOND
     1    21    22    1
     2    22    20    1
     3    20     7    1
     4     7     8    1
     5     8     9    1
     6     9    10    1
     7     9    11    1
     8    11    12    1
     9    12    13    2
    10    12    14    1
    11    14    15    2
    12    15     1    1
    13     1     2   ar
    14     2     3   ar
    15     3    23    1
    16    23    24    2
    17    23    25    2
    18    23    26    1
    19    26    27    1
    20    27    28    1
    21    28    29    1
    22    29    32    1
    23    32    33    1
    24    29    30    1
    25    30    31    1
    26     3     4   ar
    27     4     5   ar
    28     5     6   ar
    29     6    34    1
    30    34    35    1
    31    35    36    1
    32    15    16    1
    33    16    17    1
    34    17     7    1
    35    17    11    1
    36     6     1   ar
    37    31    26    1
    38     8    18    1
    39    16    19    1
@<TRIPOS>MOLECULE
*****
 36 39 0 0 0
SMALL
GASTEIGER

@<TRIPOS>ATOM
      1 C         142.6728  141.9488  163.5151 C.ar    1  UNL1        0.1170
      2 C         141.9019  142.5596  162.3826 C.ar    1  UNL1        0.0302
      3 C         142.5882  142.8565  161.0822 C.ar    1  UNL1        0.1226
      4 C         144.0453  142.5425  160.9143 C.ar    1  UNL1        0.0230
      5 C         144.8162  141.9316  162.0469 C.ar    1  UNL1        0.0385
      6 C         144.1299  141.6348  163.3472 C.ar    1  UNL1        0.1456
      7 C         139.0878  139.3957  166.5239 C.3     1  UNL1        0.1534
      8 N         138.8174  139.5321  167.9930 N.3     1  UNL1       -0.2825
      9 C         139.7608  140.5596  168.5445 C.3     1  UNL1        0.0851
     10 C         139.8373  141.0095  169.9734 C.3     1  UNL1        0.0193
     11 C         140.6142  141.0583  167.4163 C.3     1  UNL1        0.2171
     12 C         141.7164  142.0744  167.3647 C.2     1  UNL1        0.3712
     13 O         142.1323  142.7937  168.6135 O.2     1  UNL1       -0.2412
     14 N         142.4025  142.3712  166.0643 N.am    1  UNL1        0.0292
     15 C         141.9866  141.6519  164.8155 C.2     1  UNL1        0.3346
     16 N         140.8844  140.6358  164.8671 N.pl3   1  UNL1       -0.1513
     17 N         140.1983  140.3390  166.1674 N.3     1  UNL1       -0.1103
     18 H         138.9702  138.6370  168.4577 H       1  UNL1        0.1245
     19 H         140.6114  140.1637  164.0474 H       1  UNL1        0.3180
     20 C         138.3731  138.4774  165.5774 C.3     1  UNL1        0.0362
     21 C         138.8576  137.6994  163.1462 C.3     1  UNL1        0.0001
     22 C         139.1565  137.6348  164.6148 C.3     1  UNL1        0.0029
     23 S         141.8173  143.4674  159.9497 S.O2    1  UNL1        0.0634
     24 O         141.7171  142.1227  159.2926 O.2     1  UNL1       -0.1528
     25 O         141.9175  144.8120  160.6068 O.2     1  UNL1       -0.1528
     26 N         141.0464  144.0782  158.8172 N.3     1  UNL1       -0.1527
     27 C         139.9650  143.2928  158.1363 C.3     1  UNL1        0.1131
     28 C         139.1941  143.9037  157.0038 C.3     1  UNL1        0.0915
     29 N         139.5046  145.3000  156.5522 N.3     1  UNL1       -0.2702
     30 C         140.5860  146.0854  157.2331 C.3     1  UNL1        0.0915
     31 C         141.3569  145.4746  158.3656 C.3     1  UNL1        0.1131
     32 C         138.7337  145.9108  155.4198 C.3     1  UNL1        0.0722
     33 C         138.8184  147.3865  155.1647 C.3     1  UNL1        0.0188
     34 O         144.9008  141.0239  164.4798 O.3     1  UNL1       -0.4752
     35 C         145.0009  139.5321  164.6004 C.3     1  UNL1        0.2055
     36 C         143.8100  138.7338  165.0412 C.3     1  UNL1        0.0512
@<TRIPOS>BOND
     1    21    22    1
     2    22    20    1
     3    20     7    1
     4     7     8    1
     5     8     9    1
     6     9    10    1
     7     9    11    1
     8    11    12    1
     9    12    13    2
    10    12    14    1
    11    14    15    2
    12    15     1    1
    13     1     2   ar
    14     2     3   ar
    15     3    23    1
    16    23    24    2
    17    23    25    2
    18    23    26    1
    19    26    27    1
    20    27    28    1
    21    28    29    1
    22    29    32    1
    23    32    33    1
    24    29    30    1
    25    30    31    1
    26     3     4   ar
    27     4     5   ar
    28     5     6   ar
    29     6    34    1
    30    34    35    1
    31    35    36    1
    32    15    16    1
    33    16    17    1
    34    17     7    1
    35    17    11    1
    36     6     1   ar
    37    31    26    1
    38     8    18    1
    39    16    19    1
@<TRIPOS>MOLECULE
*****
 36 39 0 0 0
SMALL
GASTEIGER

@<TRIPOS>ATOM
      1 C         141.8228  139.5733  160.0353 C.ar    1  UNL1        0.1170
      2 C         141.7098  138.4535  159.0437 C.ar    1  UNL1        0.0302
      3 C         142.5396  138.4715  157.7942 C.ar    1  UNL1        0.1226
      4 C         143.4824  139.6093  157.5363 C.ar    1  UNL1        0.0230
      5 C         143.5954  140.7292  158.5280 C.ar    1  UNL1        0.0385
      6 C         142.7656  140.7111  159.7774 C.ar    1  UNL1        0.1456
      7 C         138.2033  141.6263  163.3681 C.3     1  UNL1        0.1534
      8 N         137.6955  141.0765  164.6680 N.3     1  UNL1       -0.2825
      9 C         138.3941  139.7742  164.9249 C.3     1  UNL1        0.0851
     10 C         138.1891  138.8833  166.1141 C.3     1  UNL1        0.0193
     11 C         139.3336  139.5192  163.7837 C.3     1  UNL1        0.2171
     12 C         140.2813  138.3925  163.4964 C.2     1  UNL1        0.3712
     13 O         140.3992  137.2478  164.4586 O.2     1  UNL1       -0.2412
     14 N         141.1110  138.4106  162.2470 N.am    1  UNL1        0.0292
     15 C         140.9931  139.5553  161.2848 C.2     1  UNL1        0.3346
     16 N         140.0454  140.6819  161.5721 N.pl3   1  UNL1       -0.1513
     17 N         139.2157  140.6639  162.8216 N.3     1  UNL1       -0.1103
     18 H         136.6887  140.9236  164.6095 H       1  UNL1        0.1245
     19 H         139.9680  141.4332  160.9406 H       1  UNL1        0.3180
     20 C         137.7741  142.9128  162.7272 C.3     1  UNL1        0.0362
     21 C         139.0706  144.7160  164.0755 C.3     1  UNL1        0.0001
     22 C         137.7817  144.1855  163.5213 C.3     1  UNL1        0.0029
     23 S         142.4266  137.3517  156.8026 S.O2    1  UNL1        0.0634
     24 O         140.9680  137.2141  157.1244 O.2     1  UNL1       -0.1528
     25 O         143.8852  137.4894  156.4809 O.2     1  UNL1       -0.1528
     26 N         142.3136  136.2319  155.8111 N.3     1  UNL1       -0.1527
     27 C         142.4083  134.8082  156.2736 C.3     1  UNL1        0.1131
     28 C         142.2953  133.6883  155.2819 C.3     1  UNL1        0.0915
     29 N         142.0875  133.9923  153.8279 N.3     1  UNL1       -0.2702
     30 C         141.9928  135.4161  153.3653 C.3     1  UNL1        0.0915
     31 C         142.1058  136.5359  154.3569 C.3     1  UNL1        0.1131
     32 C         141.9745  132.8725  152.8363 C.3     1  UNL1        0.0722
     33 C         142.8469  131.6599  152.9717 C.3     1  UNL1        0.0188
     34 O         142.8786  141.8310  160.7691 O.3     1  UNL1       -0.4752
     35 C         144.0876  141.9324  161.6512 C.3     1  UNL1        0.2055
     36 C         144.5449  140.7394  162.4369 C.3     1  UNL1        0.0512
@<TRIPOS>BOND
     1    21    22    1
     2    22    20    1
     3    20     7    1
     4     7     8    1
     5     8     9    1
     6     9    10    1
     7     9    11    1
     8    11    12    1
     9    12    13    2
    10    12    14    1
    11    14    15    2
    12    15     1    1
    13     1     2   ar
    14     2     3   ar
    15     3    23    1
    16    23    24    2
    17    23    25    2
    18    23    26    1
    19    26    27    1
    20    27    28    1
    21    28    29    1
    22    29    32    1
    23    32    33    1
    24    29    30    1
    25    30    31    1
    26     3     4   ar
    27     4     5   ar
    28     5     6   ar
    29     6    34    1
    30    34    35    1
    31    35    36    1
    32    15    16    1
    33    16    17    1
    34    17     7    1
    35    17    11    1
    36     6     1   ar
    37    31    26    1
    38     8    18    1
    39    16    19    1
@<TRIPOS>MOLECULE
*****
 36 39 0 0 0
SMALL
GASTEIGER

@<TRIPOS>ATOM
      1 C         140.5720  143.1213  161.9101 C.ar    1  UNL1        0.1170
      2 C         141.5004  142.7067  160.8074 C.ar    1  UNL1        0.0302
      3 C         141.9329  143.7060  159.7756 C.ar    1  UNL1        0.1226
      4 C         141.4371  145.1199  159.8468 C.ar    1  UNL1        0.0230
      5 C         140.5087  145.5345  160.9497 C.ar    1  UNL1        0.0385
      6 C         140.0761  144.5352  161.9813 C.ar    1  UNL1        0.1456
      7 C         140.1544  141.3341  166.9157 C.3     1  UNL1        0.1534
      8 N         139.5183  140.0725  167.4193 N.3     1  UNL1       -0.2825
      9 C         138.9744  139.3243  166.2385 C.3     1  UNL1        0.0851
     10 C         138.2565  138.0080  166.2833 C.3     1  UNL1        0.0193
     11 C         139.2743  140.1235  165.0051 C.3     1  UNL1        0.2171
     12 C         138.9775  139.8806  163.5550 C.2     1  UNL1        0.3712
     13 O         138.2482  138.6385  163.1365 O.2     1  UNL1       -0.2412
     14 N         139.4101  140.8799  162.5234 N.am    1  UNL1        0.0292
     15 C         140.1394  142.1220  162.9419 C.2     1  UNL1        0.3346
     16 N         140.4362  142.3649  164.3920 N.pl3   1  UNL1       -0.1513
     17 N         140.0036  141.3656  165.4236 N.3     1  UNL1       -0.1103
     18 H         138.7611  140.3000  168.0637 H       1  UNL1        0.1245
     19 H         140.9149  143.1802  164.6667 H       1  UNL1        0.3180
     20 C         140.8239  142.3805  167.7564 C.3     1  UNL1        0.0362
     21 C         140.4741  143.9137  169.8246 C.3     1  UNL1        0.0001
     22 C         140.4291  142.5538  169.1932 C.3     1  UNL1        0.0029
     23 S         142.8613  143.2915  158.6729 S.O2    1  UNL1        0.0634
     24 O         142.8413  144.6897  158.1304 O.2     1  UNL1       -0.1528
     25 O         142.8812  141.8932  159.2153 O.2     1  UNL1       -0.1528
     26 N         143.7897  142.8769  157.5701 N.3     1  UNL1       -0.1527
     27 C         145.1992  142.4742  157.8879 C.3     1  UNL1        0.1131
     28 C         146.1276  142.0596  156.7850 C.3     1  UNL1        0.0915
     29 N         145.6464  142.0476  155.3644 N.3     1  UNL1       -0.2702
     30 C         144.2369  142.4503  155.0465 C.3     1  UNL1        0.0915
     31 C         143.3085  142.8649  156.1493 C.3     1  UNL1        0.1131
     32 C         146.5748  141.6330  154.2616 C.3     1  UNL1        0.0722
     33 C         147.1428  142.6642  153.3320 C.3     1  UNL1        0.0188
     34 O         139.1477  144.9498  163.0842 O.3     1  UNL1       -0.4752
     35 C         137.7446  144.4207  163.1220 C.3     1  UNL1        0.2055
     36 C         137.2549  143.6796  164.3307 C.3     1  UNL1        0.0512
@<TRIPOS>BOND
     1    21    22    1
     2    22    20    1
     3    20     7    1
     4     7     8    1
     5     8     9    1
     6     9    10    1
     7     9    11    1
     8    11    12    1
     9    12    13    2
    10    12    14    1
    11    14    15    2
    12    15     1    1
    13     1     2   ar
    14     2     3   ar
    15     3    23    1
    16    23    24    2
    17    23    25    2
    18    23    26    1
    19    26    27    1
    20    27    28    1
    21    28    29    1
    22    29    32    1
    23    32    33    1
    24    29    30    1
    25    30    31    1
    26     3     4   ar
    27     4     5   ar
    28     5     6   ar
    29     6    34    1
    30    34    35    1
    31    35    36    1
    32    15    16    1
    33    16    17    1
    34    17     7    1
    35    17    11    1
    36     6     1   ar
    37    31    26    1
    38     8    18    1
    39    16    19    1
@<TRIPOS>MOLECULE
*****
 36 39 0 0 0
SMALL
GASTEIGER

@<TRIPOS>ATOM
      1 C         141.7529  140.3938  160.7543 C.ar    1  UNL1        0.1170
      2 C         142.7569  140.9551  159.7916 C.ar    1  UNL1        0.0302
      3 C         143.3369  140.0818  158.7186 C.ar    1  UNL1        0.1226
      4 C         142.9127  138.6473  158.6084 C.ar    1  UNL1        0.0230
      5 C         141.9087  138.0860  159.5712 C.ar    1  UNL1        0.0385
      6 C         141.3288  138.9592  160.6441 C.ar    1  UNL1        0.1456
      7 C         141.2294  141.9981  165.8116 C.3     1  UNL1        0.1534
      8 N         140.3674  143.0898  166.3729 N.3     1  UNL1       -0.2825
      9 C         139.6157  143.7173  165.2366 C.3     1  UNL1        0.0851
     10 C         138.6382  144.8499  165.3448 C.3     1  UNL1        0.0193
     11 C         140.0131  143.0135  163.9730 C.3     1  UNL1        0.2171
     12 C         139.5957  143.2028  162.5448 C.2     1  UNL1        0.3712
     13 O         138.5984  144.2654  162.1894 O.2     1  UNL1       -0.2412
     14 N         140.1757  142.3296  161.4719 N.am    1  UNL1        0.0292
     15 C         141.1730  141.2670  161.8273 C.2     1  UNL1        0.3346
     16 N         141.5904  141.0777  163.2555 N.pl3   1  UNL1       -0.1513
     17 N         141.0104  141.9509  164.3284 N.3     1  UNL1       -0.1103
     18 H         140.9504  143.7902  166.8310 H       1  UNL1        0.1245
     19 H         142.2450  140.3803  163.4887 H       1  UNL1        0.3180
     20 C         142.1489  141.1095  166.5957 C.3     1  UNL1        0.0362
     21 C         143.0557  138.7201  166.1280 C.3     1  UNL1        0.0001
     22 C         141.9474  139.6231  166.5823 C.3     1  UNL1        0.0029
     23 S         144.3409  140.6432  157.7559 S.O2    1  UNL1        0.0634
     24 O         144.4433  141.8870  158.5880 O.2     1  UNL1       -0.1528
     25 O         144.2385  139.3993  156.9239 O.2     1  UNL1       -0.1528
     26 N         145.3449  141.2045  156.7932 N.3     1  UNL1       -0.1527
     27 C         146.2433  142.3285  157.2170 C.3     1  UNL1        0.1131
     28 C         147.2474  142.8898  156.2542 C.3     1  UNL1        0.0915
     29 N         147.3530  142.3271  154.8678 N.3     1  UNL1       -0.2702
     30 C         146.4546  141.2031  154.4440 C.3     1  UNL1        0.0915
     31 C         145.4506  140.6418  155.4067 C.3     1  UNL1        0.1131
     32 C         148.3570  142.8884  153.9051 C.3     1  UNL1        0.0722
     33 C         147.8988  143.7180  152.7424 C.3     1  UNL1        0.0188
     34 O         140.3247  138.3979  161.6069 O.3     1  UNL1       -0.4752
     35 C         140.7841  137.5827  162.7792 C.3     1  UNL1        0.2055
     36 C         140.0048  137.6063  164.0606 C.3     1  UNL1        0.0512
@<TRIPOS>BOND
     1    21    22    1
     2    22    20    1
     3    20     7    1
     4     7     8    1
     5     8     9    1
     6     9    10    1
     7     9    11    1
     8    11    12    1
     9    12    13    2
    10    12    14    1
    11    14    15    2
    12    15     1    1
    13     1     2   ar
    14     2     3   ar
    15     3    23    1
    16    23    24    2
    17    23    25    2
    18    23    26    1
    19    26    27    1
    20    27    28    1
    21    28    29    1
    22    29    32    1
    23    32    33    1
    24    29    30    1
    25    30    31    1
    26     3     4   ar
    27     4     5   ar
    28     5     6   ar
    29     6    34    1
    30    34    35    1
    31    35    36    1
    32    15    16    1
    33    16    17    1
    34    17     7    1
    35    17    11    1
    36     6     1   ar
    37    31    26    1
    38     8    18    1
    39    16    19    1
@<TRIPOS>MOLECULE
*****
 36 39 0 0 0
SMALL
GASTEIGER

@<TRIPOS>ATOM
      1 C         141.4052  139.8572  161.6115 C.ar    1  UNL1        0.1170
      2 C         142.5054  140.3114  160.6988 C.ar    1  UNL1        0.0302
      3 C         142.4720  139.9462  159.2442 C.ar    1  UNL1        0.1226
      4 C         141.3384  139.1268  158.7025 C.ar    1  UNL1        0.0230
      5 C         140.2381  138.6726  159.6154 C.ar    1  UNL1        0.0385
      6 C         140.2716  139.0378  161.0698 C.ar    1  UNL1        0.1456
      7 C         140.1769  142.9725  165.7600 C.3     1  UNL1        0.1534
      8 N         140.5446  142.8112  167.2053 N.3     1  UNL1       -0.2825
      9 C         141.3657  141.5629  167.3381 C.3     1  UNL1        0.0851
     10 C         141.9453  141.0200  168.6107 C.3     1  UNL1        0.0193
     11 C         141.5054  140.9527  165.9750 C.3     1  UNL1        0.2171
     12 C         142.2067  139.7164  165.4958 C.2     1  UNL1        0.3712
     13 O         142.9414  138.8452  166.4711 O.2     1  UNL1       -0.2412
     14 N         142.1733  139.3512  164.0414 N.am    1  UNL1        0.0292
     15 C         141.4386  140.2224  163.0660 C.2     1  UNL1        0.3346
     16 N         140.7373  141.4587  163.5452 N.pl3   1  UNL1       -0.1513
     17 N         140.7707  141.8239  164.9997 N.3     1  UNL1       -0.1103
     18 H         139.6994  142.7314  167.7707 H       1  UNL1        0.1245
     19 H         140.2551  142.0305  162.9051 H       1  UNL1        0.3180
     20 C         139.3590  144.0867  165.1774 C.3     1  UNL1        0.0362
     21 C         137.7390  144.1768  163.1482 C.3     1  UNL1        0.0001
     22 C         138.0179  143.7953  164.5718 C.3     1  UNL1        0.0029
     23 S         143.5722  140.4004  158.3315 S.O2    1  UNL1        0.0634
     24 O         143.6005  141.7292  159.0268 O.2     1  UNL1       -0.1528
     25 O         143.5440  139.0716  157.6362 O.2     1  UNL1       -0.1528
     26 N         144.6725  140.8546  157.4187 N.3     1  UNL1       -0.1527
     27 C         145.4564  142.0908  157.7463 C.3     1  UNL1        0.1131
     28 C         146.5566  142.5450  156.8334 C.3     1  UNL1        0.0915
     29 N         146.8729  141.7631  155.5931 N.3     1  UNL1       -0.2702
     30 C         146.0890  140.5268  155.2656 C.3     1  UNL1        0.0915
     31 C         144.9888  140.0726  156.1783 C.3     1  UNL1        0.1131
     32 C         147.9732  142.2173  154.6804 C.3     1  UNL1        0.0722
     33 C         149.3897  141.8037  154.9495 C.3     1  UNL1        0.0188
     34 O         139.1713  138.5836  161.9827 O.3     1  UNL1       -0.4752
     35 C         137.8289  139.2506  161.9290 C.3     1  UNL1        0.2055
     36 C         137.7355  140.7316  161.7102 C.3     1  UNL1        0.0512
@<TRIPOS>BOND
     1    21    22    1
     2    22    20    1
     3    20     7    1
     4     7     8    1
     5     8     9    1
     6     9    10    1
     7     9    11    1
     8    11    12    1
     9    12    13    2
    10    12    14    1
    11    14    15    2
    12    15     1    1
    13     1     2   ar
    14     2     3   ar
    15     3    23    1
    16    23    24    2
    17    23    25    2
    18    23    26    1
    19    26    27    1
    20    27    28    1
    21    28    29    1
    22    29    32    1
    23    32    33    1
    24    29    30    1
    25    30    31    1
    26     3     4   ar
    27     4     5   ar
    28     5     6   ar
    29     6    34    1
    30    34    35    1
    31    35    36    1
    32    15    16    1
    33    16    17    1
    34    17     7    1
    35    17    11    1
    36     6     1   ar
    37    31    26    1
    38     8    18    1
    39    16    19    1
