@<TRIPOS>MOLECULE
*****
 33 38 0 0 0
SMALL
GASTEIGER

@<TRIPOS>ATOM
      1 C         142.5661  136.6959  157.7241 C.3     1  UNL1        0.1161
      2 C         143.2895  135.3976  157.5211 C.3     1  UNL1        0.0510
      3 C         142.9376  134.5167  156.3591 C.2     1  UNL1       -0.0044
      4 C         141.8623  134.9341  155.4002 C.2     1  UNL1        0.0689
      5 N         141.7340  133.8665  154.3544 N.2     1  UNL1       -0.2526
      6 C         142.7300  132.7893  154.6669 C.2     1  UNL1        0.0627
      7 C         143.0557  131.4945  153.9834 C.3     1  UNL1        0.0717
      8 C         144.1253  130.6015  154.5389 C.2     1  UNL1       -0.0198
      9 C         144.8692  131.0034  155.7779 C.2     1  UNL1       -0.0042
     10 C         144.5435  132.2982  156.4614 C.2     1  UNL1        0.0006
     11 C         143.4739  133.1912  155.9059 C.2     1  UNL1        0.0111
     12 C         141.1389  136.2323  155.6033 C.3     1  UNL1        0.0949
     13 N         141.4908  137.1133  156.7652 N.3     1  UNL1       -0.2887
     14 H         140.6385  137.2331  157.3126 H       1  UNL1        0.1239
     15 C         143.2125  138.4060  161.1480 C.ar    1  UNL1        0.0947
     16 C         143.7067  139.4586  160.2004 C.ar    1  UNL1        0.1187
     17 N         143.5248  138.9461  158.8025 N.ar    1  UNL1       -0.2282
     18 C         142.9181  137.5768  158.8861 C.ar    1  UNL1        0.1318
     19 N         142.7251  137.2430  160.3357 N.ar    1  UNL1       -0.3385
     20 H         142.3452  136.4074  160.6915 H       1  UNL1        0.1672
     21 CL        143.1894  138.7818  167.1362 Cl      1  UNL1       -0.0806
     22 C         143.1952  138.6879  165.6391 C.ar    1  UNL1        0.0768
     23 C         144.3319  139.2740  164.8553 C.ar    1  UNL1        0.0146
     24 C         144.3376  139.1801  163.3583 C.ar    1  UNL1        0.0215
     25 C         143.2067  138.5000  162.6451 C.ar    1  UNL1        0.0985
     26 N         142.0701  137.9139  163.4290 N.ar    1  UNL1       -0.2415
     27 C         142.0643  138.0078  164.9260 C.ar    1  UNL1        0.1102
     28 C         140.0635  136.6497  154.6444 C.3     1  UNL1        0.0252
     29 C         138.7522  137.1600  155.1639 C.3     1  UNL1        0.0339
     30 C         137.6769  137.5774  154.2049 C.3     1  UNL1        0.1422
     31 O         137.9129  137.4844  152.7265 O.3     1  UNL1       -0.3538
     32 C         139.2243  136.9740  152.2070 C.3     1  UNL1        0.1422
     33 C         140.2996  136.5567  153.1659 C.3     1  UNL1        0.0339
@<TRIPOS>BOND
     1    21    22    1
     2    22    23   ar
     3    23    24   ar
     4    24    25   ar
     5    25    15    1
     6    15    16   ar
     7    16    17   ar
     8    17    18   ar
     9     1    18    1
    10     1     2    1
    11     2     3    1
    12     3     4    2
    13     4     5    1
    14     5     6    2
    15     6     7    1
    16     7     8    1
    17     8     9    2
    18     9    10    1
    19    10    11    2
    20     4    12    1
    21    12    28    1
    22    28    29    1
    23    29    30    1
    24    30    31    1
    25    31    32    1
    26    32    33    1
    27    12    13    1
    28    18    19   ar
    29    25    26   ar
    30    26    27   ar
    31    27    22   ar
    32    19    15   ar
    33    13     1    1
    34    11     3    1
    35    33    28    1
    36    11     6    1
    37    13    14    1
    38    19    20    1
@<TRIPOS>MOLECULE
*****
 33 38 0 0 0
SMALL
GASTEIGER

@<TRIPOS>ATOM
      1 C         142.1295  140.0167  160.5887 C.3     1  UNL1        0.1161
      2 C         142.5829  139.3740  161.8660 C.3     1  UNL1        0.0510
      3 C         142.2568  140.0124  163.1837 C.2     1  UNL1       -0.0044
      4 C         141.4775  141.2935  163.2239 C.2     1  UNL1        0.0689
      5 N         141.3066  141.6870  164.6613 N.2     1  UNL1       -0.2526
      6 C         141.9803  140.6492  165.5093 C.2     1  UNL1        0.0627
      7 C         142.1348  140.5129  166.9950 C.3     1  UNL1        0.0717
      8 C         142.8767  139.3417  167.5676 C.2     1  UNL1       -0.0198
      9 C         143.4640  138.3067  166.6543 C.2     1  UNL1       -0.0042
     10 C         143.3094  138.4430  165.1686 C.2     1  UNL1        0.0006
     11 C         142.5676  139.6143  164.5961 C.2     1  UNL1        0.0111
     12 C         141.0242  141.9361  161.9466 C.3     1  UNL1        0.0949
     13 N         141.3502  141.2977  160.6290 N.3     1  UNL1       -0.2887
     14 H         141.8826  141.9832  160.0933 H       1  UNL1        0.1239
     15 C         142.8242  137.7191  157.5385 C.ar    1  UNL1        0.0947
     16 C         143.0903  139.0723  156.9486 C.ar    1  UNL1        0.1187
     17 N         142.8625  140.0977  158.0194 N.ar    1  UNL1       -0.2282
     18 C         142.4556  139.3782  159.2710 C.ar    1  UNL1        0.1318
     19 N         142.4319  137.9081  158.9739 N.ar    1  UNL1       -0.3385
     20 H         142.1997  137.1929  159.6093 H       1  UNL1        0.1672
     21 CL        143.2537  132.4713  154.6616 Cl      1  UNL1       -0.0806
     22 C         143.1463  133.7833  155.3808 C.ar    1  UNL1        0.0768
     23 C         142.9174  135.0469  154.6057 C.ar    1  UNL1        0.0146
     24 C         142.8101  136.3588  155.3249 C.ar    1  UNL1        0.0215
     25 C         142.9316  136.4071  156.8192 C.ar    1  UNL1        0.0985
     26 N         143.1605  135.1434  157.5943 N.ar    1  UNL1       -0.2415
     27 C         143.2678  133.8315  156.8751 C.ar    1  UNL1        0.1102
     28 C         140.2448  143.2171  161.9869 C.3     1  UNL1        0.0252
     29 C         138.9131  143.2634  162.6754 C.3     1  UNL1        0.0339
     30 C         138.1338  144.5445  162.7156 C.3     1  UNL1        0.1422
     31 O         138.6862  145.7792  162.0673 O.3     1  UNL1       -0.3538
     32 C         140.0181  145.7328  161.3787 C.3     1  UNL1        0.1422
     33 C         140.7973  144.4518  161.3385 C.3     1  UNL1        0.0339
@<TRIPOS>BOND
     1    21    22    1
     2    22    23   ar
     3    23    24   ar
     4    24    25   ar
     5    25    15    1
     6    15    16   ar
     7    16    17   ar
     8    17    18   ar
     9     1    18    1
    10     1     2    1
    11     2     3    1
    12     3     4    2
    13     4     5    1
    14     5     6    2
    15     6     7    1
    16     7     8    1
    17     8     9    2
    18     9    10    1
    19    10    11    2
    20     4    12    1
    21    12    28    1
    22    28    29    1
    23    29    30    1
    24    30    31    1
    25    31    32    1
    26    32    33    1
    27    12    13    1
    28    18    19   ar
    29    25    26   ar
    30    26    27   ar
    31    27    22   ar
    32    19    15   ar
    33    13     1    1
    34    11     3    1
    35    33    28    1
    36    11     6    1
    37    13    14    1
    38    19    20    1
@<TRIPOS>MOLECULE
*****
 33 38 0 0 0
SMALL
GASTEIGER

@<TRIPOS>ATOM
      1 C         139.3963  139.6561  157.5858 C.3     1  UNL1        0.1161
      2 C         139.0934  139.5795  159.0529 C.3     1  UNL1        0.0510
      3 C         138.7381  140.8239  159.8114 C.2     1  UNL1       -0.0044
      4 C         138.6856  142.1449  159.1027 C.2     1  UNL1        0.0689
      5 N         138.3080  143.1943  160.1057 N.2     1  UNL1       -0.2526
      6 C         138.1270  142.5219  161.4343 C.2     1  UNL1        0.0627
      7 C         137.7546  143.0543  162.7862 C.3     1  UNL1        0.0717
      8 C         137.6480  142.1218  163.9562 C.2     1  UNL1       -0.0198
      9 C         137.9138  140.6568  163.7743 C.2     1  UNL1       -0.0042
     10 C         138.2862  140.1243  162.4224 C.2     1  UNL1        0.0006
     11 C         138.3928  141.0569  161.2524 C.2     1  UNL1        0.0111
     12 C         138.9885  142.2215  157.6355 C.3     1  UNL1        0.0949
     13 N         139.3438  140.9771  156.8771 N.3     1  UNL1       -0.2887
     14 H         140.2679  141.1318  156.4739 H       1  UNL1        0.1239
     15 C         140.8846  136.3869  156.1152 C.ar    1  UNL1        0.0947
     16 C         139.7123  136.6065  155.2056 C.ar    1  UNL1        0.1187
     17 N         139.0120  137.8578  155.6457 N.ar    1  UNL1       -0.2282
     18 C         139.7516  138.4116  156.8274 C.ar    1  UNL1        0.1318
     19 N         140.9089  137.5026  157.1175 N.ar    1  UNL1       -0.3385
     20 H         141.5686  137.6179  157.8392 H       1  UNL1        0.1672
     21 CL        144.7909  131.8436  155.7997 Cl      1  UNL1       -0.0806
     22 C         143.8143  132.9795  155.8785 C.ar    1  UNL1        0.0768
     23 C         142.7385  133.1169  154.8424 C.ar    1  UNL1        0.0146
     24 C         141.7619  134.2527  154.9213 C.ar    1  UNL1        0.0215
     25 C         141.8612  135.2511  156.0363 C.ar    1  UNL1        0.0985
     26 N         142.9371  135.1137  157.0725 N.ar    1  UNL1       -0.2415
     27 C         143.9136  133.9779  156.9936 C.ar    1  UNL1        0.1102
     28 C         138.9360  143.5424  156.9268 C.3     1  UNL1        0.0252
     29 C         139.9120  144.6241  157.2834 C.3     1  UNL1        0.0339
     30 C         139.8595  145.9451  156.5747 C.3     1  UNL1        0.1422
     31 O         138.8310  146.1844  155.5094 O.3     1  UNL1       -0.3538
     32 C         137.8550  145.1026  155.1528 C.3     1  UNL1        0.1422
     33 C         137.9075  143.7817  155.8615 C.3     1  UNL1        0.0339
@<TRIPOS>BOND
     1    21    22    1
     2    22    23   ar
     3    23    24   ar
     4    24    25   ar
     5    25    15    1
     6    15    16   ar
     7    16    17   ar
     8    17    18   ar
     9     1    18    1
    10     1     2    1
    11     2     3    1
    12     3     4    2
    13     4     5    1
    14     5     6    2
    15     6     7    1
    16     7     8    1
    17     8     9    2
    18     9    10    1
    19    10    11    2
    20     4    12    1
    21    12    28    1
    22    28    29    1
    23    29    30    1
    24    30    31    1
    25    31    32    1
    26    32    33    1
    27    12    13    1
    28    18    19   ar
    29    25    26   ar
    30    26    27   ar
    31    27    22   ar
    32    19    15   ar
    33    13     1    1
    34    11     3    1
    35    33    28    1
    36    11     6    1
    37    13    14    1
    38    19    20    1
@<TRIPOS>MOLECULE
*****
 33 38 0 0 0
SMALL
GASTEIGER

@<TRIPOS>ATOM
      1 C         143.2296  142.9921  157.4121 C.3     1  UNL1        0.1161
      2 C         143.2954  143.2630  158.8860 C.3     1  UNL1        0.0510
      3 C         142.1448  143.9318  159.5778 C.2     1  UNL1       -0.0044
      4 C         140.9283  144.3298  158.7957 C.2     1  UNL1        0.0689
      5 N         139.9567  144.9688  159.7432 N.2     1  UNL1       -0.2526
      6 C         140.5728  144.9657  161.1109 C.2     1  UNL1        0.0627
      7 C         140.0770  145.4637  162.4361 C.3     1  UNL1        0.0717
      8 C         140.9337  145.3207  163.6591 C.2     1  UNL1       -0.0198
      9 C         142.2860  144.6798  163.5568 C.2     1  UNL1       -0.0042
     10 C         142.7817  144.1818  162.2316 C.2     1  UNL1        0.0006
     11 C         141.9251  144.3248  161.0086 C.2     1  UNL1        0.0111
     12 C         140.8624  144.0590  157.3218 C.3     1  UNL1        0.0949
     13 N         142.0131  143.3901  156.6300 N.3     1  UNL1       -0.2887
     14 H         142.3285  144.0281  155.8993 H       1  UNL1        0.1239
     15 C         146.5053  141.9533  155.6076 C.ar    1  UNL1        0.0947
     16 C         145.7967  140.6347  155.7039 C.ar    1  UNL1        0.1187
     17 N         144.4834  140.8634  156.3915 N.ar    1  UNL1       -0.2282
     18 C         144.3803  142.3232  156.7203 C.ar    1  UNL1        0.1318
     19 N         145.6299  142.9969  156.2358 N.ar    1  UNL1       -0.3385
     20 H         145.8387  143.9556  156.3161 H       1  UNL1        0.1672
     21 CL        151.8949  142.8893  153.1426 Cl      1  UNL1       -0.0806
     22 C         150.5475  142.6553  153.7589 C.ar    1  UNL1        0.0768
     23 C         149.3278  143.2890  153.1583 C.ar    1  UNL1        0.0146
     24 C         147.9804  143.0550  153.7745 C.ar    1  UNL1        0.0215
     25 C         147.8527  142.1873  154.9914 C.ar    1  UNL1        0.0985
     26 N         149.0724  141.5536  155.5920 N.ar    1  UNL1       -0.2415
     27 C         150.4198  141.7876  154.9757 C.ar    1  UNL1        0.1102
     28 C         139.6459  144.4570  156.5397 C.3     1  UNL1        0.0252
     29 C         139.5340  145.8447  155.9816 C.3     1  UNL1        0.0339
     30 C         138.3174  146.2427  155.1995 C.3     1  UNL1        0.1422
     31 O         137.2128  145.2529  154.9755 O.3     1  UNL1       -0.3538
     32 C         137.3248  143.8651  155.5336 C.3     1  UNL1        0.1422
     33 C         138.5412  143.4672  156.3157 C.3     1  UNL1        0.0339
@<TRIPOS>BOND
     1    21    22    1
     2    22    23   ar
     3    23    24   ar
     4    24    25   ar
     5    25    15    1
     6    15    16   ar
     7    16    17   ar
     8    17    18   ar
     9     1    18    1
    10     1     2    1
    11     2     3    1
    12     3     4    2
    13     4     5    1
    14     5     6    2
    15     6     7    1
    16     7     8    1
    17     8     9    2
    18     9    10    1
    19    10    11    2
    20     4    12    1
    21    12    28    1
    22    28    29    1
    23    29    30    1
    24    30    31    1
    25    31    32    1
    26    32    33    1
    27    12    13    1
    28    18    19   ar
    29    25    26   ar
    30    26    27   ar
    31    27    22   ar
    32    19    15   ar
    33    13     1    1
    34    11     3    1
    35    33    28    1
    36    11     6    1
    37    13    14    1
    38    19    20    1
@<TRIPOS>MOLECULE
*****
 33 38 0 0 0
SMALL
GASTEIGER

@<TRIPOS>ATOM
      1 C         142.5333  139.6279  158.2751 C.3     1  UNL1        0.1161
      2 C         143.1988  139.6342  159.6194 C.3     1  UNL1        0.0510
      3 C         143.4309  140.9318  160.3352 C.2     1  UNL1       -0.0044
      4 C         142.9975  142.2230  159.7068 C.2     1  UNL1        0.0689
      5 N         143.3564  143.3379  160.6438 N.2     1  UNL1       -0.2526
      6 C         144.0116  142.7358  161.8514 C.2     1  UNL1        0.0627
      7 C         144.5722  143.3495  163.0999 C.3     1  UNL1        0.0717
      8 C         145.1789  142.4762  164.1578 C.2     1  UNL1       -0.0198
      9 C         145.2250  140.9890  163.9671 C.2     1  UNL1       -0.0042
     10 C         144.6643  140.3753  162.7185 C.2     1  UNL1        0.0006
     11 C         144.0576  141.2487  161.6606 C.2     1  UNL1        0.0111
     12 C         142.3320  142.2166  158.3625 C.3     1  UNL1        0.0949
     13 N         142.0999  140.9191  157.6466 N.3     1  UNL1       -0.2887
     14 H         142.5822  140.9868  156.7504 H       1  UNL1        0.1239
     15 C         142.5712  136.0544  156.7603 C.ar    1  UNL1        0.0947
     16 C         141.3173  136.6125  156.1551 C.ar    1  UNL1        0.1187
     17 N         141.1505  138.0190  156.6489 N.ar    1  UNL1       -0.2282
     18 C         142.3013  138.3302  157.5592 C.ar    1  UNL1        0.1318
     19 N         143.1794  137.1161  157.6281 N.ar    1  UNL1       -0.3385
     20 H         144.0091  137.0309  158.1510 H       1  UNL1        0.1672
     21 CL        144.7686  130.5432  155.8666 Cl      1  UNL1       -0.0806
     22 C         144.2193  131.9211  156.0900 C.ar    1  UNL1        0.0768
     23 C         143.4128  132.5901  155.0167 C.ar    1  UNL1        0.0146
     24 C         142.8635  133.9678  155.2401 C.ar    1  UNL1        0.0215
     25 C         143.1206  134.6766  156.5369 C.ar    1  UNL1        0.0985
     26 N         143.9270  134.0076  157.6102 N.ar    1  UNL1       -0.2415
     27 C         144.4764  132.6298  157.3868 C.ar    1  UNL1        0.1102
     28 C         141.8986  143.5078  157.7340 C.3     1  UNL1        0.0252
     29 C         142.5817  144.0052  156.4948 C.3     1  UNL1        0.0339
     30 C         142.1482  145.2965  155.8663 C.3     1  UNL1        0.1422
     31 O         141.0316  146.0902  156.4772 O.3     1  UNL1       -0.3538
     32 C         140.3485  145.5928  157.7165 C.3     1  UNL1        0.1422
     33 C         140.7819  144.3016  158.3449 C.3     1  UNL1        0.0339
@<TRIPOS>BOND
     1    21    22    1
     2    22    23   ar
     3    23    24   ar
     4    24    25   ar
     5    25    15    1
     6    15    16   ar
     7    16    17   ar
     8    17    18   ar
     9     1    18    1
    10     1     2    1
    11     2     3    1
    12     3     4    2
    13     4     5    1
    14     5     6    2
    15     6     7    1
    16     7     8    1
    17     8     9    2
    18     9    10    1
    19    10    11    2
    20     4    12    1
    21    12    28    1
    22    28    29    1
    23    29    30    1
    24    30    31    1
    25    31    32    1
    26    32    33    1
    27    12    13    1
    28    18    19   ar
    29    25    26   ar
    30    26    27   ar
    31    27    22   ar
    32    19    15   ar
    33    13     1    1
    34    11     3    1
    35    33    28    1
    36    11     6    1
    37    13    14    1
    38    19    20    1
@<TRIPOS>MOLECULE
*****
 33 38 0 0 0
SMALL
GASTEIGER

@<TRIPOS>ATOM
      1 C         142.0087  139.5897  161.1887 C.3     1  UNL1        0.1161
      2 C         141.0223  138.8415  162.0356 C.3     1  UNL1        0.0510
      3 C         140.6786  139.3431  163.4069 C.2     1  UNL1       -0.0044
      4 C         141.3214  140.5929  163.9312 C.2     1  UNL1        0.0689
      5 N         140.7896  140.8436  165.3112 N.2     1  UNL1       -0.2526
      6 C         139.8182  139.7489  165.6397 C.2     1  UNL1        0.0627
      7 C         138.9874  139.4767  166.8585 C.3     1  UNL1        0.0717
      8 C         138.0879  138.2770  166.9003 C.2     1  UNL1       -0.0198
      9 C         138.0193  137.3496  165.7234 C.2     1  UNL1       -0.0042
     10 C         138.8501  137.6219  164.5046 C.2     1  UNL1        0.0006
     11 C         139.7496  138.8215  164.4628 C.2     1  UNL1        0.0111
     12 C         142.3078  141.3411  163.0843 C.3     1  UNL1        0.0949
     13 N         142.6514  140.8395  161.7131 N.3     1  UNL1       -0.2887
     14 H         143.6588  140.6795  161.7019 H       1  UNL1        0.1239
     15 C         142.7373  137.6140  157.9282 C.ar    1  UNL1        0.0947
     16 C         143.0250  139.0183  157.4866 C.ar    1  UNL1        0.1187
     17 N         142.7871  139.9293  158.6542 N.ar    1  UNL1       -0.2282
     18 C         142.3524  139.0881  159.8174 C.ar    1  UNL1        0.1318
     19 N         142.3216  137.6571  159.3688 N.ar    1  UNL1       -0.3385
     20 H         142.0723  136.8823  159.9226 H       1  UNL1        0.1672
     21 CL        143.1729  132.6887  154.5292 Cl      1  UNL1       -0.0806
     22 C         143.0640  133.9201  155.3790 C.ar    1  UNL1        0.0768
     23 C         142.7099  135.2356  154.7513 C.ar    1  UNL1        0.0146
     24 C         142.6010  136.4669  155.6010 C.ar    1  UNL1        0.0215
     25 C         142.8462  136.3826  157.0785 C.ar    1  UNL1        0.0985
     26 N         143.2003  135.0671  157.7062 N.ar    1  UNL1       -0.2415
     27 C         143.3091  133.8358  156.8564 C.ar    1  UNL1        0.1102
     28 C         142.9505  142.5908  163.6086 C.3     1  UNL1        0.0252
     29 C         142.5921  143.9226  163.0191 C.3     1  UNL1        0.0339
     30 C         143.2349  145.1725  163.5435 C.3     1  UNL1        0.1422
     31 O         144.2361  145.0903  164.6574 O.3     1  UNL1       -0.3538
     32 C         144.5946  143.7584  165.2469 C.3     1  UNL1        0.1422
     33 C         143.9518  142.5087  164.7226 C.3     1  UNL1        0.0339
@<TRIPOS>BOND
     1    21    22    1
     2    22    23   ar
     3    23    24   ar
     4    24    25   ar
     5    25    15    1
     6    15    16   ar
     7    16    17   ar
     8    17    18   ar
     9     1    18    1
    10     1     2    1
    11     2     3    1
    12     3     4    2
    13     4     5    1
    14     5     6    2
    15     6     7    1
    16     7     8    1
    17     8     9    2
    18     9    10    1
    19    10    11    2
    20     4    12    1
    21    12    28    1
    22    28    29    1
    23    29    30    1
    24    30    31    1
    25    31    32    1
    26    32    33    1
    27    12    13    1
    28    18    19   ar
    29    25    26   ar
    30    26    27   ar
    31    27    22   ar
    32    19    15   ar
    33    13     1    1
    34    11     3    1
    35    33    28    1
    36    11     6    1
    37    13    14    1
    38    19    20    1
@<TRIPOS>MOLECULE
*****
 33 38 0 0 0
SMALL
GASTEIGER

@<TRIPOS>ATOM
      1 C         141.4359  138.8561  158.3178 C.3     1  UNL1        0.1161
      2 C         142.4893  139.9105  158.1482 C.3     1  UNL1        0.0510
      3 C         143.5649  139.7371  157.1171 C.2     1  UNL1       -0.0044
      4 C         143.5870  138.5094  156.2557 C.2     1  UNL1        0.0689
      5 N         144.7629  138.6137  155.3302 N.2     1  UNL1       -0.2526
      6 C         145.4674  139.9059  155.6197 C.2     1  UNL1        0.0627
      7 C         146.6875  140.5401  155.0203 C.3     1  UNL1        0.0717
      8 C         147.1671  141.8685  155.5254 C.2     1  UNL1       -0.0198
      9 C         146.4267  142.5628  156.6298 C.2     1  UNL1       -0.0042
     10 C         145.2066  141.9287  157.2291 C.2     1  UNL1        0.0006
     11 C         144.7270  140.6003  156.7241 C.2     1  UNL1        0.0111
     12 C         142.5336  137.4550  156.4253 C.3     1  UNL1        0.0949
     13 N         141.4581  137.6284  157.4563 N.3     1  UNL1       -0.2887
     14 H         141.5217  136.8282  158.0857 H       1  UNL1        0.1239
     15 C         139.1904  139.1035  161.4741 C.ar    1  UNL1        0.0947
     16 C         138.2202  139.4894  160.3972 C.ar    1  UNL1        0.1187
     17 N         138.9433  139.4438  159.0837 N.ar    1  UNL1       -0.2282
     18 C         140.3603  139.0296  159.3489 C.ar    1  UNL1        0.1318
     19 N         140.5131  138.8192  160.8262 N.ar    1  UNL1       -0.3385
     20 H         141.3369  138.5431  161.2893 H       1  UNL1        0.1672
     21 CL        137.9912  138.7570  167.3428 Cl      1  UNL1       -0.0806
     22 C         138.2910  138.8436  165.8756 C.ar    1  UNL1        0.0768
     23 C         138.7818  137.6334  165.1377 C.ar    1  UNL1        0.0146
     24 C         139.0816  137.7201  163.6705 C.ar    1  UNL1        0.0215
     25 C         138.8906  139.0169  162.9413 C.ar    1  UNL1        0.0985
     26 N         138.3998  140.2270  163.6792 N.ar    1  UNL1       -0.2415
     27 C         138.1000  140.1404  165.1463 C.ar    1  UNL1        0.1102
     28 C         142.5558  136.2272  155.5638 C.3     1  UNL1        0.0252
     29 C         141.9359  136.2579  154.1983 C.3     1  UNL1        0.0339
     30 C         141.9581  135.0300  153.3369 C.3     1  UNL1        0.1422
     31 O         142.6002  133.7717  153.8410 O.3     1  UNL1       -0.3538
     32 C         143.2201  133.7410  155.2066 C.3     1  UNL1        0.1422
     33 C         143.1979  134.9688  156.0679 C.3     1  UNL1        0.0339
@<TRIPOS>BOND
     1    21    22    1
     2    22    23   ar
     3    23    24   ar
     4    24    25   ar
     5    25    15    1
     6    15    16   ar
     7    16    17   ar
     8    17    18   ar
     9     1    18    1
    10     1     2    1
    11     2     3    1
    12     3     4    2
    13     4     5    1
    14     5     6    2
    15     6     7    1
    16     7     8    1
    17     8     9    2
    18     9    10    1
    19    10    11    2
    20     4    12    1
    21    12    28    1
    22    28    29    1
    23    29    30    1
    24    30    31    1
    25    31    32    1
    26    32    33    1
    27    12    13    1
    28    18    19   ar
    29    25    26   ar
    30    26    27   ar
    31    27    22   ar
    32    19    15   ar
    33    13     1    1
    34    11     3    1
    35    33    28    1
    36    11     6    1
    37    13    14    1
    38    19    20    1
@<TRIPOS>MOLECULE
*****
 33 38 0 0 0
SMALL
GASTEIGER

@<TRIPOS>ATOM
      1 C         143.1378  139.3163  158.0478 C.3     1  UNL1        0.1161
      2 C         142.3421  140.4920  157.5633 C.3     1  UNL1        0.0510
      3 C         142.1744  141.6970  158.4407 C.2     1  UNL1       -0.0044
      4 C         142.8024  141.7262  159.8027 C.2     1  UNL1        0.0689
      5 N         142.4674  143.0425  160.4393 N.2     1  UNL1       -0.2526
      6 C         141.6325  143.8267  159.4708 C.2     1  UNL1        0.0627
      7 C         141.0138  145.1906  159.5541 C.3     1  UNL1        0.0717
      8 C         140.2140  145.7229  158.4022 C.2     1  UNL1       -0.0198
      9 C         140.0329  144.8913  157.1670 C.2     1  UNL1       -0.0042
     10 C         140.6516  143.5274  157.0837 C.2     1  UNL1        0.0006
     11 C         141.4514  142.9951  158.2356 C.2     1  UNL1        0.0111
     12 C         143.5980  140.5505  160.2872 C.3     1  UNL1        0.0949
     13 N         143.7657  139.3456  159.4097 N.3     1  UNL1       -0.2887
     14 H         143.3876  138.5509  159.9254 H       1  UNL1        0.1239
     15 C         143.1509  135.8518  156.2977 C.ar    1  UNL1        0.0947
     16 C         143.9760  136.6622  155.3425 C.ar    1  UNL1        0.1187
     17 N         144.0715  138.0586  155.8818 N.ar    1  UNL1       -0.2282
     18 C         143.3054  138.1113  157.1703 C.ar    1  UNL1        0.1318
     19 N         142.7364  136.7475  157.4274 N.ar    1  UNL1       -0.3385
     20 H         142.1873  136.4860  158.2016 H       1  UNL1        0.1672
     21 CL        141.7532  130.0471  155.7042 Cl      1  UNL1       -0.0806
     22 C         142.1026  131.4984  155.8526 C.ar    1  UNL1        0.0768
     23 C         141.3385  132.5360  155.0849 C.ar    1  UNL1        0.0146
     24 C         141.6879  133.9872  155.2333 C.ar    1  UNL1        0.0215
     25 C         142.8015  134.4006  156.1494 C.ar    1  UNL1        0.0985
     26 N         143.5656  133.3629  156.9170 N.ar    1  UNL1       -0.2415
     27 C         143.2161  131.9118  156.7686 C.ar    1  UNL1        0.1102
     28 C         144.2259  140.5798  161.6491 C.3     1  UNL1        0.0252
     29 C         145.0585  141.7557  162.0660 C.3     1  UNL1        0.0339
     30 C         145.6864  141.7849  163.4280 C.3     1  UNL1        0.1422
     31 O         145.4817  140.6382  164.3730 O.3     1  UNL1       -0.3538
     32 C         144.6491  139.4622  163.9561 C.3     1  UNL1        0.1422
     33 C         144.0213  139.4330  162.5942 C.3     1  UNL1        0.0339
@<TRIPOS>BOND
     1    21    22    1
     2    22    23   ar
     3    23    24   ar
     4    24    25   ar
     5    25    15    1
     6    15    16   ar
     7    16    17   ar
     8    17    18   ar
     9     1    18    1
    10     1     2    1
    11     2     3    1
    12     3     4    2
    13     4     5    1
    14     5     6    2
    15     6     7    1
    16     7     8    1
    17     8     9    2
    18     9    10    1
    19    10    11    2
    20     4    12    1
    21    12    28    1
    22    28    29    1
    23    29    30    1
    24    30    31    1
    25    31    32    1
    26    32    33    1
    27    12    13    1
    28    18    19   ar
    29    25    26   ar
    30    26    27   ar
    31    27    22   ar
    32    19    15   ar
    33    13     1    1
    34    11     3    1
    35    33    28    1
    36    11     6    1
    37    13    14    1
    38    19    20    1
@<TRIPOS>MOLECULE
*****
 33 38 0 0 0
SMALL
GASTEIGER

@<TRIPOS>ATOM
      1 C         140.3583  143.7729  159.1681 C.3     1  UNL1        0.1161
      2 C         139.8943  144.2741  160.5036 C.3     1  UNL1        0.0510
      3 C         140.1941  143.4878  161.7453 C.2     1  UNL1       -0.0044
      4 C         140.9579  142.2003  161.6515 C.2     1  UNL1        0.0689
      5 N         141.1038  141.6459  163.0376 N.2     1  UNL1       -0.2526
      6 C         140.4301  142.5907  163.9881 C.2     1  UNL1        0.0627
      7 C         140.2559  142.5616  165.4776 C.3     1  UNL1        0.0717
      8 C         139.5196  143.6708  166.1684 C.2     1  UNL1       -0.0198
      9 C         138.9573  144.8092  165.3697 C.2     1  UNL1       -0.0042
     10 C         139.1315  144.8384  163.8802 C.2     1  UNL1        0.0006
     11 C         139.8678  143.7291  163.1893 C.2     1  UNL1        0.0111
     12 C         141.4220  141.6991  160.3160 C.3     1  UNL1        0.0949
     13 N         141.1222  142.4854  159.0743 N.3     1  UNL1       -0.2887
     14 H         140.5895  141.8712  158.4583 H       1  UNL1        0.1239
     15 C         139.6184  146.4050  156.4132 C.ar    1  UNL1        0.0947
     16 C         139.5758  145.1337  155.6183 C.ar    1  UNL1        0.1187
     17 N         139.8478  143.9929  156.5535 N.ar    1  UNL1       -0.2282
     18 C         140.0585  144.5593  157.9264 C.ar    1  UNL1        0.1318
     19 N         139.9167  146.0500  157.8397 N.ar    1  UNL1       -0.3385
     20 H         140.0041  146.6841  158.5877 H       1  UNL1        0.1672
     21 CL        138.7484  151.9390  154.2640 Cl      1  UNL1       -0.0806
     22 C         138.9659  150.5555  154.8013 C.ar    1  UNL1        0.0768
     23 C         139.7179  149.5445  153.9874 C.ar    1  UNL1        0.0146
     24 C         139.9354  148.1610  154.5247 C.ar    1  UNL1        0.0215
     25 C         139.4009  147.7886  155.8759 C.ar    1  UNL1        0.0985
     26 N         138.6489  148.7995  156.6897 N.ar    1  UNL1       -0.2415
     27 C         138.4314  150.1830  156.1524 C.ar    1  UNL1        0.1102
     28 C         142.1858  140.4115  160.2222 C.3     1  UNL1        0.0252
     29 C         141.7121  139.3236  159.3048 C.3     1  UNL1        0.0339
     30 C         142.4761  138.0360  159.2110 C.3     1  UNL1        0.1422
     31 O         143.7137  137.8365  160.0347 O.3     1  UNL1       -0.3538
     32 C         144.1874  138.9246  160.9522 C.3     1  UNL1        0.1422
     33 C         143.4235  140.2120  161.0460 C.3     1  UNL1        0.0339
@<TRIPOS>BOND
     1    21    22    1
     2    22    23   ar
     3    23    24   ar
     4    24    25   ar
     5    25    15    1
     6    15    16   ar
     7    16    17   ar
     8    17    18   ar
     9     1    18    1
    10     1     2    1
    11     2     3    1
    12     3     4    2
    13     4     5    1
    14     5     6    2
    15     6     7    1
    16     7     8    1
    17     8     9    2
    18     9    10    1
    19    10    11    2
    20     4    12    1
    21    12    28    1
    22    28    29    1
    23    29    30    1
    24    30    31    1
    25    31    32    1
    26    32    33    1
    27    12    13    1
    28    18    19   ar
    29    25    26   ar
    30    26    27   ar
    31    27    22   ar
    32    19    15   ar
    33    13     1    1
    34    11     3    1
    35    33    28    1
    36    11     6    1
    37    13    14    1
    38    19    20    1
