@<TRIPOS>MOLECULE
*****
 26 29 0 0 0
SMALL
GASTEIGER

@<TRIPOS>ATOM
      1 S         138.9054  138.9616  164.0375 S.O2    1  UNL1        0.0129
      2 O         138.9011  140.3114  163.3833 O.2     1  UNL1       -0.1683
      3 O         138.9097  137.6119  164.6917 O.2     1  UNL1       -0.1683
      4 C         139.2595  139.5982  165.3488 C.ar    1  UNL1        0.1060
      5 C         138.6274  139.1056  166.6167 C.ar    1  UNL1        0.0180
      6 C         138.9815  139.7422  167.9280 C.ar    1  UNL1       -0.0029
      7 C         139.9679  140.8714  167.9713 C.ar    1  UNL1       -0.0214
      8 C         140.6001  141.3641  166.7033 C.ar    1  UNL1       -0.0029
      9 C         140.2459  140.7275  165.3921 C.ar    1  UNL1        0.0180
     10 C         140.3221  141.5080  169.2825 C.3     1  UNL1        0.0347
     11 C         140.2417  140.2495  170.0946 C.3     1  UNL1        0.0726
     12 N         140.5636  140.5951  171.5183 N.3     1  UNL1       -0.2972
     13 C         140.8429  142.0673  171.5860 C.3     1  UNL1        0.0689
     14 C         140.6936  142.6316  170.2042 C.3     1  UNL1        0.0211
     15 C         140.4765  142.8997  168.7445 C.3     1  UNL1        0.0072
     16 H         141.3845  140.0727  171.8242 H       1  UNL1        0.1233
     17 C         138.5512  138.3250  162.7263 C.3     1  UNL1        0.1822
     18 C         141.5072  138.3668  159.3337 C.ar    1  UNL1       -0.0225
     19 C         141.9639  138.0301  160.7222 C.ar    1  UNL1       -0.0045
     20 C         140.9786  138.0162  161.8531 C.ar    1  UNL1       -0.0029
     21 C         139.5366  138.3389  161.5954 C.ar    1  UNL1        0.0017
     22 C         139.0799  138.6756  160.2069 C.ar    1  UNL1       -0.0029
     23 C         140.0653  138.6895  159.0760 C.ar    1  UNL1       -0.0045
     24 C         142.7432  137.1316  157.4110 C.3     1  UNL1        0.0047
     25 C         142.4926  138.3807  158.2028 C.3     1  UNL1        0.0224
     26 C         143.2273  139.6437  157.8636 C.3     1  UNL1        0.0047
@<TRIPOS>BOND
     1    24    25    1
     2    25    26    1
     3    25    18    1
     4    18    19   ar
     5    19    20   ar
     6    20    21   ar
     7    21    17    1
     8    17     1    1
     9     1     2    2
    10     1     3    2
    11     1     4    1
    12     4     5   ar
    13     5     6   ar
    14     6     7   ar
    15    10     7    1
    16    10    11    1
    17    11    12    1
    18    12    13    1
    19    14    13    1
    20    14    15    1
    21     7     8   ar
    22     8     9   ar
    23    21    22   ar
    24    22    23   ar
    25    23    18   ar
    26     9     4   ar
    27    14    10    1
    28    15    10    1
    29    12    16    1
@<TRIPOS>MOLECULE
*****
 26 29 0 0 0
SMALL
GASTEIGER

@<TRIPOS>ATOM
      1 S         138.8684  139.0317  163.9736 S.O2    1  UNL1        0.0129
      2 O         138.8492  137.6770  164.6174 O.2     1  UNL1       -0.1683
      3 O         138.8875  140.3863  163.3298 O.2     1  UNL1       -0.1683
      4 C         139.2293  139.6525  165.2906 C.ar    1  UNL1        0.1060
      5 C         140.1349  140.8474  165.3334 C.ar    1  UNL1        0.0180
      6 C         140.4958  141.4682  166.6504 C.ar    1  UNL1       -0.0029
      7 C         139.9510  140.8940  167.9246 C.ar    1  UNL1       -0.0214
      8 C         139.0453  139.6990  167.8817 C.ar    1  UNL1       -0.0029
      9 C         138.6845  139.0783  166.5648 C.ar    1  UNL1        0.0180
     10 C         140.3119  141.5148  169.2415 C.3     1  UNL1        0.0347
     11 C         140.2070  140.2519  170.0441 C.3     1  UNL1        0.0726
     12 N         140.5302  140.5815  171.4713 N.3     1  UNL1       -0.2972
     13 C         140.8348  142.0481  171.5507 C.3     1  UNL1        0.0689
     14 C         140.6999  142.6249  170.1727 C.3     1  UNL1        0.0211
     15 C         140.4922  142.9074  168.7143 C.3     1  UNL1        0.0072
     16 H         141.3408  140.0426  171.7760 H       1  UNL1        0.1233
     17 C         138.5075  138.4109  162.6566 C.3     1  UNL1        0.1822
     18 C         141.4981  138.3683  159.2945 C.ar    1  UNL1       -0.0225
     19 C         140.0718  138.7463  159.0248 C.ar    1  UNL1       -0.0045
     20 C         139.0749  138.7605  160.1455 C.ar    1  UNL1       -0.0029
     21 C         139.5043  138.3967  161.5359 C.ar    1  UNL1        0.0017
     22 C         140.9306  138.0187  161.8056 C.ar    1  UNL1       -0.0029
     23 C         141.9275  138.0045  160.6849 C.ar    1  UNL1       -0.0045
     24 C         143.2657  139.5968  157.8397 C.3     1  UNL1        0.0047
     25 C         142.4950  138.3541  158.1738 C.3     1  UNL1        0.0224
     26 C         142.7212  137.0971  157.3871 C.3     1  UNL1        0.0047
@<TRIPOS>BOND
     1    24    25    1
     2    25    26    1
     3    25    18    1
     4    18    19   ar
     5    19    20   ar
     6    20    21   ar
     7    21    17    1
     8    17     1    1
     9     1     2    2
    10     1     3    2
    11     1     4    1
    12     4     5   ar
    13     5     6   ar
    14     6     7   ar
    15    10     7    1
    16    10    11    1
    17    11    12    1
    18    12    13    1
    19    14    13    1
    20    14    15    1
    21     7     8   ar
    22     8     9   ar
    23    21    22   ar
    24    22    23   ar
    25    23    18   ar
    26     9     4   ar
    27    14    10    1
    28    15    10    1
    29    12    16    1
@<TRIPOS>MOLECULE
*****
 26 29 0 0 0
SMALL
GASTEIGER

@<TRIPOS>ATOM
      1 S         139.2000  138.9617  164.6394 S.O2    1  UNL1        0.0129
      2 O         138.0776  139.8550  164.2013 O.2     1  UNL1       -0.1683
      3 O         140.3225  138.0684  165.0776 O.2     1  UNL1       -0.1683
      4 C         139.6696  138.8548  163.2188 C.ar    1  UNL1        0.1060
      5 C         141.0126  139.3978  162.8299 C.ar    1  UNL1        0.0180
      6 C         141.4821  139.2909  161.4092 C.ar    1  UNL1       -0.0029
      7 C         140.6085  138.6409  160.3775 C.ar    1  UNL1       -0.0214
      8 C         139.2654  138.0979  160.7665 C.ar    1  UNL1       -0.0029
      9 C         138.7960  138.2048  162.1871 C.ar    1  UNL1        0.0180
     10 C         141.0780  138.5339  158.9569 C.3     1  UNL1        0.0347
     11 C         142.5425  138.4927  159.2784 C.3     1  UNL1        0.0726
     12 N         143.2977  138.3818  157.9871 N.3     1  UNL1       -0.2972
     13 C         142.2998  138.3545  156.8676 C.3     1  UNL1        0.0689
     14 C         140.9280  138.4485  157.4669 C.3     1  UNL1        0.0211
     15 C         139.7116  138.5528  158.3384 C.3     1  UNL1        0.0072
     16 H         143.8485  137.5233  157.9809 H       1  UNL1        0.1233
     17 C         138.7306  139.0686  166.0600 C.3     1  UNL1        0.1822
     18 C         140.5181  142.1642  168.7936 C.ar    1  UNL1       -0.0225
     19 C         140.6399  142.3169  167.3064 C.ar    1  UNL1       -0.0045
     20 C         140.0441  141.2850  166.3952 C.ar    1  UNL1       -0.0029
     21 C         139.3264  140.1005  166.9712 C.ar    1  UNL1        0.0017
     22 C         139.2046  139.9478  168.4584 C.ar    1  UNL1       -0.0029
     23 C         139.8004  140.9797  169.3696 C.ar    1  UNL1       -0.0045
     24 C         140.3136  144.4027  170.0962 C.3     1  UNL1        0.0047
     25 C         141.1139  143.1961  169.7047 C.3     1  UNL1        0.0224
     26 C         142.5101  143.0212  170.2244 C.3     1  UNL1        0.0047
@<TRIPOS>BOND
     1    24    25    1
     2    25    26    1
     3    25    18    1
     4    18    19   ar
     5    19    20   ar
     6    20    21   ar
     7    21    17    1
     8    17     1    1
     9     1     2    2
    10     1     3    2
    11     1     4    1
    12     4     5   ar
    13     5     6   ar
    14     6     7   ar
    15    10     7    1
    16    10    11    1
    17    11    12    1
    18    12    13    1
    19    14    13    1
    20    14    15    1
    21     7     8   ar
    22     8     9   ar
    23    21    22   ar
    24    22    23   ar
    25    23    18   ar
    26     9     4   ar
    27    14    10    1
    28    15    10    1
    29    12    16    1
@<TRIPOS>MOLECULE
*****
 26 29 0 0 0
SMALL
GASTEIGER

@<TRIPOS>ATOM
      1 S         138.1835  141.4155  162.3410 S.O2    1  UNL1        0.0129
      2 O         139.1455  140.3051  162.0387 O.2     1  UNL1       -0.1683
      3 O         137.2215  142.5260  162.6432 O.2     1  UNL1       -0.1683
      4 C         138.7551  142.2186  161.2103 C.ar    1  UNL1        0.1060
      5 C         139.5202  143.4767  161.4957 C.ar    1  UNL1        0.0180
      6 C         140.0919  144.2798  160.3650 C.ar    1  UNL1       -0.0029
      7 C         139.8983  143.8246  158.9489 C.ar    1  UNL1       -0.0214
      8 C         139.1332  142.5664  158.6635 C.ar    1  UNL1       -0.0029
      9 C         138.5616  141.7634  159.7942 C.ar    1  UNL1        0.0180
     10 C         140.4699  144.6276  157.8182 C.3     1  UNL1        0.0347
     11 C         141.5805  145.2485  158.6126 C.3     1  UNL1        0.0726
     12 N         142.3593  146.1463  157.6974 N.3     1  UNL1       -0.2972
     13 C         141.7300  146.0801  156.3374 C.3     1  UNL1        0.0689
     14 C         140.5624  145.1416  156.4121 C.3     1  UNL1        0.0211
     15 C         139.4789  144.1746  156.7874 C.3     1  UNL1        0.0072
     16 H         143.3282  145.8318  157.6462 H       1  UNL1        0.1233
     17 C         137.6118  140.6125  163.4716 C.3     1  UNL1        0.1822
     18 C         139.7504  140.4578  167.4280 C.ar    1  UNL1       -0.0225
     19 C         138.8101  139.3554  167.0400 C.ar    1  UNL1       -0.0045
     20 C         138.0973  139.4069  165.7212 C.ar    1  UNL1       -0.0029
     21 C         138.3247  140.5609  164.7904 C.ar    1  UNL1        0.0017
     22 C         139.2649  141.6634  165.1783 C.ar    1  UNL1       -0.0029
     23 C         139.9778  141.6118  166.4971 C.ar    1  UNL1       -0.0045
     24 C         139.6770  140.3248  170.0216 C.3     1  UNL1        0.0047
     25 C         140.4632  140.4062  168.7467 C.3     1  UNL1        0.0224
     26 C         141.9622  140.4360  168.7907 C.3     1  UNL1        0.0047
@<TRIPOS>BOND
     1    24    25    1
     2    25    26    1
     3    25    18    1
     4    18    19   ar
     5    19    20   ar
     6    20    21   ar
     7    21    17    1
     8    17     1    1
     9     1     2    2
    10     1     3    2
    11     1     4    1
    12     4     5   ar
    13     5     6   ar
    14     6     7   ar
    15    10     7    1
    16    10    11    1
    17    11    12    1
    18    12    13    1
    19    14    13    1
    20    14    15    1
    21     7     8   ar
    22     8     9   ar
    23    21    22   ar
    24    22    23   ar
    25    23    18   ar
    26     9     4   ar
    27    14    10    1
    28    15    10    1
    29    12    16    1
@<TRIPOS>MOLECULE
*****
 26 29 0 0 0
SMALL
GASTEIGER

@<TRIPOS>ATOM
      1 S         138.2737  141.5911  163.4610 S.O2    1  UNL1        0.0129
      2 O         139.0888  140.5151  162.8070 O.2     1  UNL1       -0.1683
      3 O         137.4586  142.6671  164.1150 O.2     1  UNL1       -0.1683
      4 C         138.8705  141.2352  164.7904 C.ar    1  UNL1        0.1060
      5 C         138.4892  139.9504  165.4640 C.ar    1  UNL1        0.0180
      6 C         139.0860  139.5946  166.7934 C.ar    1  UNL1       -0.0029
      7 C         140.0641  140.5236  167.4492 C.ar    1  UNL1       -0.0214
      8 C         140.4454  141.8085  166.7756 C.ar    1  UNL1       -0.0029
      9 C         139.8486  142.1643  165.4462 C.ar    1  UNL1        0.0180
     10 C         140.6609  140.1679  168.7785 C.3     1  UNL1        0.0347
     11 C         142.0420  139.8929  168.2618 C.3     1  UNL1        0.0726
     12 N         142.9015  139.4952  169.4251 N.3     1  UNL1       -0.2972
     13 C         142.0516  139.5244  170.6607 C.3     1  UNL1        0.0689
     14 C         140.6668  139.9401  170.2611 C.3     1  UNL1        0.0211
     15 C         139.4046  140.3684  169.5732 C.3     1  UNL1        0.0072
     16 H         143.6768  140.1508  169.5227 H       1  UNL1        0.1233
     17 C         137.6769  141.9469  162.1317 C.3     1  UNL1        0.1822
     18 C         140.1099  144.2289  159.1113 C.ar    1  UNL1       -0.0225
     19 C         139.2015  143.1232  158.6616 C.ar    1  UNL1       -0.0045
     20 C         138.3905  142.3626  159.6684 C.ar    1  UNL1       -0.0029
     21 C         138.4879  142.7076  161.1249 C.ar    1  UNL1        0.0017
     22 C         139.3963  143.8132  161.5746 C.ar    1  UNL1       -0.0029
     23 C         140.2073  144.5738  160.5678 C.ar    1  UNL1       -0.0045
     24 C         140.3115  146.1472  157.3708 C.3     1  UNL1        0.0047
     25 C         140.9210  144.9895  158.1045 C.3     1  UNL1        0.0224
     26 C         142.3414  144.5925  157.8314 C.3     1  UNL1        0.0047
@<TRIPOS>BOND
     1    24    25    1
     2    25    26    1
     3    25    18    1
     4    18    19   ar
     5    19    20   ar
     6    20    21   ar
     7    21    17    1
     8    17     1    1
     9     1     2    2
    10     1     3    2
    11     1     4    1
    12     4     5   ar
    13     5     6   ar
    14     6     7   ar
    15    10     7    1
    16    10    11    1
    17    11    12    1
    18    12    13    1
    19    14    13    1
    20    14    15    1
    21     7     8   ar
    22     8     9   ar
    23    21    22   ar
    24    22    23   ar
    25    23    18   ar
    26     9     4   ar
    27    14    10    1
    28    15    10    1
    29    12    16    1
@<TRIPOS>MOLECULE
*****
 26 29 0 0 0
SMALL
GASTEIGER

@<TRIPOS>ATOM
      1 S         139.7680  138.2586  164.2088 S.O2    1  UNL1        0.0129
      2 O         141.0498  138.7126  163.5757 O.2     1  UNL1       -0.1683
      3 O         138.4863  137.8046  164.8420 O.2     1  UNL1       -0.1683
      4 C         140.1721  138.9135  165.4965 C.ar    1  UNL1        0.1060
      5 C         139.1245  139.3448  166.4795 C.ar    1  UNL1        0.0180
      6 C         139.5286  139.9997  167.7672 C.ar    1  UNL1       -0.0029
      7 C         140.9802  140.2233  168.0716 C.ar    1  UNL1       -0.0214
      8 C         142.0278  139.7919  167.0885 C.ar    1  UNL1       -0.0029
      9 C         141.6237  139.1370  165.8009 C.ar    1  UNL1        0.0180
     10 C         141.3843  140.8781  169.3592 C.3     1  UNL1        0.0347
     11 C         140.4195  140.1260  170.2272 C.3     1  UNL1        0.0726
     12 N         140.6042  140.5950  171.6400 N.3     1  UNL1       -0.2972
     13 C         141.6832  141.6370  171.6450 C.3     1  UNL1        0.0689
     14 C         142.1653  141.8120  170.2355 C.3     1  UNL1        0.0211
     15 C         142.4336  141.7672  168.7604 C.3     1  UNL1        0.0072
     16 H         140.8776  139.8108  172.2321 H       1  UNL1        0.1233
     17 C         139.3639  137.6037  162.9213 C.3     1  UNL1        0.1822
     18 C         138.5452  140.1163  159.2790 C.ar    1  UNL1       -0.0225
     19 C         137.7677  140.3485  160.5405 C.ar    1  UNL1       -0.0045
     20 C         138.0406  139.5109  161.7546 C.ar    1  UNL1       -0.0029
     21 C         139.0910  138.4412  161.7072 C.ar    1  UNL1        0.0017
     22 C         139.8686  138.2091  160.4457 C.ar    1  UNL1       -0.0029
     23 C         139.5957  139.0466  159.2316 C.ar    1  UNL1       -0.0045
     24 C         138.1741  140.3078  156.7147 C.3     1  UNL1        0.0047
     25 C         138.2723  140.9538  158.0649 C.3     1  UNL1        0.0224
     26 C         138.0977  142.4373  158.2009 C.3     1  UNL1        0.0047
@<TRIPOS>BOND
     1    24    25    1
     2    25    26    1
     3    25    18    1
     4    18    19   ar
     5    19    20   ar
     6    20    21   ar
     7    21    17    1
     8    17     1    1
     9     1     2    2
    10     1     3    2
    11     1     4    1
    12     4     5   ar
    13     5     6   ar
    14     6     7   ar
    15    10     7    1
    16    10    11    1
    17    11    12    1
    18    12    13    1
    19    14    13    1
    20    14    15    1
    21     7     8   ar
    22     8     9   ar
    23    21    22   ar
    24    22    23   ar
    25    23    18   ar
    26     9     4   ar
    27    14    10    1
    28    15    10    1
    29    12    16    1
@<TRIPOS>MOLECULE
*****
 26 29 0 0 0
SMALL
GASTEIGER

@<TRIPOS>ATOM
      1 S         138.5036  142.0501  163.9134 S.O2    1  UNL1        0.0129
      2 O         137.6522  143.1091  164.5487 O.2     1  UNL1       -0.1683
      3 O         139.3551  140.9911  163.2782 O.2     1  UNL1       -0.1683
      4 C         139.1701  141.7945  165.2328 C.ar    1  UNL1        0.1060
      5 C         139.9608  142.8826  165.8968 C.ar    1  UNL1        0.0180
      6 C         140.6273  142.6270  167.2162 C.ar    1  UNL1       -0.0029
      7 C         140.5031  141.2834  167.8713 C.ar    1  UNL1       -0.0214
      8 C         139.7124  140.1953  167.2072 C.ar    1  UNL1       -0.0029
      9 C         139.0459  140.4509  165.8879 C.ar    1  UNL1        0.0180
     10 C         141.1695  141.0278  169.1906 C.3     1  UNL1        0.0347
     11 C         140.0821  141.6248  170.0339 C.3     1  UNL1        0.0726
     12 N         140.4921  141.5052  171.4718 N.3     1  UNL1       -0.2972
     13 C         141.8329  140.8342  171.5171 C.3     1  UNL1        0.0689
     14 C         142.2516  140.5392  170.1073 C.3     1  UNL1        0.0211
     15 C         142.3963  140.3773  168.6232 C.3     1  UNL1        0.0072
     16 H         139.8079  140.9462  171.9815 H       1  UNL1        0.1233
     17 C         137.8372  142.3056  162.5942 C.3     1  UNL1        0.1822
     18 C         140.1003  144.3582  159.2903 C.ar    1  UNL1       -0.0225
     19 C         140.1663  144.8938  160.6898 C.ar    1  UNL1       -0.0045
     20 C         139.4120  144.2096  161.7911 C.ar    1  UNL1       -0.0029
     21 C         138.5916  142.9898  161.4929 C.ar    1  UNL1        0.0017
     22 C         138.5255  142.4542  160.0933 C.ar    1  UNL1       -0.0029
     23 C         139.2798  143.1384  158.9921 C.ar    1  UNL1       -0.0045
     24 C         140.2011  146.1387  157.4009 C.3     1  UNL1        0.0047
     25 C         140.8546  145.0424  158.1890 C.3     1  UNL1        0.0224
     26 C         142.2624  144.6303  157.8758 C.3     1  UNL1        0.0047
@<TRIPOS>BOND
     1    24    25    1
     2    25    26    1
     3    25    18    1
     4    18    19   ar
     5    19    20   ar
     6    20    21   ar
     7    21    17    1
     8    17     1    1
     9     1     2    2
    10     1     3    2
    11     1     4    1
    12     4     5   ar
    13     5     6   ar
    14     6     7   ar
    15    10     7    1
    16    10    11    1
    17    11    12    1
    18    12    13    1
    19    14    13    1
    20    14    15    1
    21     7     8   ar
    22     8     9   ar
    23    21    22   ar
    24    22    23   ar
    25    23    18   ar
    26     9     4   ar
    27    14    10    1
    28    15    10    1
    29    12    16    1
@<TRIPOS>MOLECULE
*****
 26 29 0 0 0
SMALL
GASTEIGER

@<TRIPOS>ATOM
      1 S         142.4645  137.9289  157.5570 S.O2    1  UNL1        0.0129
      2 O         143.7872  138.1500  156.8852 O.2     1  UNL1       -0.1683
      3 O         141.1417  137.7077  158.2288 O.2     1  UNL1       -0.1683
      4 C         142.9828  138.5953  158.7969 C.ar    1  UNL1        0.1060
      5 C         143.4008  140.0352  158.7556 C.ar    1  UNL1        0.0180
      6 C         143.9191  140.7017  159.9955 C.ar    1  UNL1       -0.0029
      7 C         144.0193  139.9281  161.2767 C.ar    1  UNL1       -0.0214
      8 C         143.6012  138.4881  161.3180 C.ar    1  UNL1       -0.0029
      9 C         143.0829  137.8217  160.0782 C.ar    1  UNL1        0.0180
     10 C         144.5375  140.5945  162.5166 C.3     1  UNL1        0.0347
     11 C         144.7150  141.9516  161.9028 C.3     1  UNL1        0.0726
     12 N         145.2477  142.8725  162.9601 N.3     1  UNL1       -0.2972
     13 C         145.3994  142.0846  164.2275 C.3     1  UNL1        0.0689
     14 C         144.9605  140.6767  163.9534 C.3     1  UNL1        0.0211
     15 C         144.4684  139.3767  163.3897 C.3     1  UNL1        0.0072
     16 H         144.5964  143.6435  163.1078 H       1  UNL1        0.1233
     17 C         141.9462  137.2625  156.3172 C.3     1  UNL1        0.1822
     18 C         142.1627  132.7861  155.9106 C.ar    1  UNL1       -0.0225
     19 C         143.0343  133.4917  156.9067 C.ar    1  UNL1       -0.0045
     20 C         142.9622  134.9839  157.0422 C.ar    1  UNL1       -0.0029
     21 C         142.0184  135.7703  156.1817 C.ar    1  UNL1        0.0017
     22 C         141.1467  135.0647  155.1856 C.ar    1  UNL1       -0.0029
     23 C         141.2189  133.5726  155.0500 C.ar    1  UNL1       -0.0045
     24 C         143.2288  130.5146  156.5841 C.3     1  UNL1        0.0047
     25 C         142.2349  131.2940  155.7751 C.3     1  UNL1        0.0224
     26 C         141.3131  130.5812  154.8305 C.3     1  UNL1        0.0047
@<TRIPOS>BOND
     1    24    25    1
     2    25    26    1
     3    25    18    1
     4    18    19   ar
     5    19    20   ar
     6    20    21   ar
     7    21    17    1
     8    17     1    1
     9     1     2    2
    10     1     3    2
    11     1     4    1
    12     4     5   ar
    13     5     6   ar
    14     6     7   ar
    15    10     7    1
    16    10    11    1
    17    11    12    1
    18    12    13    1
    19    14    13    1
    20    14    15    1
    21     7     8   ar
    22     8     9   ar
    23    21    22   ar
    24    22    23   ar
    25    23    18   ar
    26     9     4   ar
    27    14    10    1
    28    15    10    1
    29    12    16    1
@<TRIPOS>MOLECULE
*****
 26 29 0 0 0
SMALL
GASTEIGER

@<TRIPOS>ATOM
      1 S         143.1336  138.7075  164.2110 S.O2    1  UNL1        0.0129
      2 O         141.9863  137.8440  164.6443 O.2     1  UNL1       -0.1683
      3 O         144.2810  139.5710  163.7777 O.2     1  UNL1       -0.1683
      4 C         142.6965  138.5716  162.7825 C.ar    1  UNL1        0.1060
      5 C         141.2651  138.8199  162.4093 C.ar    1  UNL1        0.0180
      6 C         140.8280  138.6840  160.9808 C.ar    1  UNL1       -0.0029
      7 C         141.8223  138.2997  159.9256 C.ar    1  UNL1       -0.0214
      8 C         143.2538  138.0513  160.2988 C.ar    1  UNL1       -0.0029
      9 C         143.6909  138.1872  161.7273 C.ar    1  UNL1        0.0180
     10 C         141.3853  138.1637  158.4972 C.3     1  UNL1        0.0347
     11 C         139.9818  138.6458  158.7160 C.3     1  UNL1        0.0726
     12 N         139.2705  138.6166  157.3958 N.3     1  UNL1       -0.2972
     13 C         140.2343  138.1165  156.3610 C.3     1  UNL1        0.0689
     14 C         141.5413  137.8366  157.0416 C.3     1  UNL1        0.0211
     15 C         142.6974  137.6532  157.9796 C.3     1  UNL1        0.0072
     16 H         138.9563  139.5556  157.1510 H       1  UNL1        0.1233
     17 C         143.5708  138.8434  165.6394 C.3     1  UNL1        0.1822
     18 C         141.1472  141.3230  168.5079 C.ar    1  UNL1       -0.0225
     19 C         141.8783  140.1087  168.9987 C.ar    1  UNL1       -0.0045
     20 C         142.6861  139.2822  168.0425 C.ar    1  UNL1       -0.0029
     21 C         142.7629  139.6700  166.5956 C.ar    1  UNL1        0.0017
     22 C         142.0318  140.8843  166.1048 C.ar    1  UNL1       -0.0029
     23 C         141.2239  141.7108  167.0610 C.ar    1  UNL1       -0.0045
     24 C         140.5980  143.6219  169.5865 C.3     1  UNL1        0.0047
     25 C         140.3393  142.1495  169.4640 C.3     1  UNL1        0.0224
     26 C         139.2727  141.5036  170.2978 C.3     1  UNL1        0.0047
@<TRIPOS>BOND
     1    24    25    1
     2    25    26    1
     3    25    18    1
     4    18    19   ar
     5    19    20   ar
     6    20    21   ar
     7    21    17    1
     8    17     1    1
     9     1     2    2
    10     1     3    2
    11     1     4    1
    12     4     5   ar
    13     5     6   ar
    14     6     7   ar
    15    10     7    1
    16    10    11    1
    17    11    12    1
    18    12    13    1
    19    14    13    1
    20    14    15    1
    21     7     8   ar
    22     8     9   ar
    23    21    22   ar
    24    22    23   ar
    25    23    18   ar
    26     9     4   ar
    27    14    10    1
    28    15    10    1
    29    12    16    1
