@<TRIPOS>MOLECULE
*****
 39 44 0 0 0
SMALL
GASTEIGER

@<TRIPOS>ATOM
      1 C         141.4205  137.8485  164.3742 C.3     1  UNL1        0.0932
      2 C         142.2965  138.3791  165.4701 C.3     1  UNL1        0.0286
      3 C         143.6032  139.0349  165.1346 C.3     1  UNL1        0.0193
      4 C         144.0339  139.1601  163.7032 C.3     1  UNL1        0.0700
      5 C         143.1578  138.6295  162.6073 C.3     1  UNL1        0.0193
      6 C         141.8511  137.9737  162.9428 C.3     1  UNL1        0.0286
      7 C         143.3093  138.7929  163.8379 C.3     1  UNL1        0.1562
      8 O         142.1278  138.2000  164.1412 O.3     1  UNL1       -0.3572
      9 N         145.3405  139.8159  163.3677 N.3     1  UNL1       -0.2926
     10 H         145.4157  139.8192  162.3505 H       1  UNL1        0.1236
     11 C         145.6162  141.2170  163.8268 C.3     1  UNL1        0.1152
     12 C         144.5849  142.2880  163.6279 C.ar    1  UNL1        0.0765
     13 C         144.5203  143.4517  164.5722 C.ar    1  UNL1        0.0193
     14 C         143.4891  144.5226  164.3733 C.ar    1  UNL1        0.0411
     15 C         142.5225  144.4300  163.2301 C.ar    1  UNL1        0.1706
     16 C         142.5870  143.2664  162.2857 C.ar    1  UNL1        0.1682
     17 N         143.6183  142.1953  162.4846 N.ar    1  UNL1       -0.2304
     18 N         141.6204  143.1737  161.1425 N.am    1  UNL1       -0.2640
     19 C         140.5892  144.2447  160.9435 C.2     1  UNL1        0.2674
     20 O         139.6225  144.1520  159.8003 O.2     1  UNL1       -0.2708
     21 C         140.5246  145.4083  161.8879 C.3     1  UNL1        0.2416
     22 C         139.4933  146.4793  161.6890 C.3     1  UNL1        0.0574
     23 O         141.4912  145.5010  163.0312 O.3     1  UNL1       -0.4671
     24 H         141.6628  142.4100  160.5227 H       1  UNL1        0.1565
     25 C         140.1138  137.1928  164.7096 C.3     1  UNL1        0.0320
     26 C         138.8846  138.0289  164.9095 C.3     1  UNL1        0.0327
     27 C         140.0598  142.0019  166.6655 C.ar    1  UNL1        0.2250
     28 C         139.8702  143.2592  165.8696 C.ar    1  UNL1        0.0593
     29 C         139.2890  143.1921  164.4885 C.ar    1  UNL1        0.0254
     30 C         138.8973  141.8677  163.9031 C.ar    1  UNL1        0.0990
     31 N         138.3160  141.8006  162.5220 N.ar    1  UNL1       -0.2400
     32 C         137.9243  140.4763  161.9366 C.ar    1  UNL1        0.1281
     33 C         138.1138  139.2190  162.7325 C.ar    1  UNL1        0.1566
     34 F         137.7221  137.8947  162.1472 F       1  UNL1       -0.2028
     35 C         138.6950  139.2861  164.1137 C.ar    1  UNL1        0.0261
     36 C         139.0868  140.6105  164.6990 C.ar    1  UNL1        0.1002
     37 N         139.6680  140.6776  166.0802 N.ar    1  UNL1       -0.2104
     38 C         140.0261  141.2721  169.1587 C.3     1  UNL1        0.2542
     39 O         140.6410  142.0690  168.0467 O.3     1  UNL1       -0.4561
@<TRIPOS>BOND
     1    38    39    1
     2    39    27    1
     3    27    28   ar
     4    28    29   ar
     5    29    30   ar
     6    30    31   ar
     7    31    32   ar
     8    32    33   ar
     9    33    34    1
    10    33    35   ar
    11    35    26    1
    12    26    25    1
    13    25     1    1
    14     1     2    1
    15     2     3    1
    16     3     4    1
    17     4     9    1
    18     9    11    1
    19    11    12    1
    20    12    13   ar
    21    13    14   ar
    22    14    15   ar
    23    15    16   ar
    24    16    17   ar
    25    16    18    1
    26    18    19   am
    27    19    20    2
    28    19    21    1
    29    21    22    1
    30    21    23    1
    31     4     5    1
    32     5     6    1
    33     4     7    1
    34     7     8    1
    35    35    36   ar
    36    36    37   ar
    37    37    27   ar
    38    36    30   ar
    39     6     1    1
    40     8     1    1
    41    17    12   ar
    42    23    15    1
    43     9    10    1
    44    18    24    1
@<TRIPOS>MOLECULE
*****
 39 44 0 0 0
SMALL
GASTEIGER

@<TRIPOS>ATOM
      1 C         143.3192  140.5006  160.5984 C.3     1  UNL1        0.0932
      2 C         141.8314  140.5344  160.7867 C.3     1  UNL1        0.0286
      3 C         141.1347  139.3905  161.4619 C.3     1  UNL1        0.0193
      4 C         141.9258  138.2126  161.9488 C.3     1  UNL1        0.0700
      5 C         143.4135  138.1788  161.7604 C.3     1  UNL1        0.0193
      6 C         144.1102  139.3229  161.0852 C.3     1  UNL1        0.0286
      7 C         142.3517  138.8159  161.5846 C.3     1  UNL1        0.1562
      8 O         142.9817  139.8503  160.9741 O.3     1  UNL1       -0.3572
      9 N         141.2291  137.0686  162.6240 N.3     1  UNL1       -0.2926
     10 H         141.6007  136.2129  162.2116 H       1  UNL1        0.1236
     11 C         141.3213  136.9076  164.1124 C.3     1  UNL1        0.1152
     12 C         140.9605  138.0506  165.0143 C.ar    1  UNL1        0.0765
     13 C         139.5199  138.4056  165.2354 C.ar    1  UNL1        0.0193
     14 C         139.1591  139.5486  166.1372 C.ar    1  UNL1        0.0411
     15 C         140.2388  140.3366  166.8179 C.ar    1  UNL1        0.1706
     16 C         141.6793  139.9817  166.5968 C.ar    1  UNL1        0.1682
     17 N         142.0402  138.8386  165.6950 N.ar    1  UNL1       -0.2304
     18 N         142.7590  140.7697  167.2775 N.am    1  UNL1       -0.2640
     19 C         142.3982  141.9127  168.1793 C.2     1  UNL1        0.2674
     20 O         143.4778  142.7007  168.8600 O.2     1  UNL1       -0.2708
     21 C         140.9576  142.2677  168.4005 C.3     1  UNL1        0.2416
     22 C         140.5968  143.4107  169.3023 C.3     1  UNL1        0.0574
     23 O         139.8779  141.4797  167.7198 O.3     1  UNL1       -0.4671
     24 H         143.7044  140.5366  167.1324 H       1  UNL1        0.1565
     25 C         144.0158  141.6446  159.9232 C.3     1  UNL1        0.0320
     26 C         144.6030  142.7547  160.7436 C.3     1  UNL1        0.0327
     27 C         140.8236  145.1156  161.3697 C.ar    1  UNL1        0.2250
     28 C         140.3191  145.3689  162.7594 C.ar    1  UNL1        0.0593
     29 C         141.0744  144.8352  163.9404 C.ar    1  UNL1        0.0254
     30 C         142.3341  144.0482  163.7317 C.ar    1  UNL1        0.0990
     31 N         143.0894  143.5145  164.9127 N.ar    1  UNL1       -0.2400
     32 C         144.3491  142.7275  164.7040 C.ar    1  UNL1        0.1281
     33 C         144.8537  142.4742  163.3143 C.ar    1  UNL1        0.1566
     34 F         146.1135  141.6873  163.1056 F       1  UNL1       -0.2028
     35 C         144.0985  143.0079  162.1333 C.ar    1  UNL1        0.0261
     36 C         142.8387  143.7950  162.3420 C.ar    1  UNL1        0.1002
     37 N         142.0834  144.3287  161.1610 N.ar    1  UNL1       -0.2104
     38 C         140.5575  145.3722  158.7981 C.3     1  UNL1        0.2542
     39 O         140.0684  145.6494  160.1887 O.3     1  UNL1       -0.4561
@<TRIPOS>BOND
     1    38    39    1
     2    39    27    1
     3    27    28   ar
     4    28    29   ar
     5    29    30   ar
     6    30    31   ar
     7    31    32   ar
     8    32    33   ar
     9    33    34    1
    10    33    35   ar
    11    35    26    1
    12    26    25    1
    13    25     1    1
    14     1     2    1
    15     2     3    1
    16     3     4    1
    17     4     9    1
    18     9    11    1
    19    11    12    1
    20    12    13   ar
    21    13    14   ar
    22    14    15   ar
    23    15    16   ar
    24    16    17   ar
    25    16    18    1
    26    18    19   am
    27    19    20    2
    28    19    21    1
    29    21    22    1
    30    21    23    1
    31     4     5    1
    32     5     6    1
    33     4     7    1
    34     7     8    1
    35    35    36   ar
    36    36    37   ar
    37    37    27   ar
    38    36    30   ar
    39     6     1    1
    40     8     1    1
    41    17    12   ar
    42    23    15    1
    43     9    10    1
    44    18    24    1
@<TRIPOS>MOLECULE
*****
 39 44 0 0 0
SMALL
GASTEIGER

@<TRIPOS>ATOM
      1 C         140.3839  140.4112  167.2203 C.3     1  UNL1        0.0932
      2 C         141.6651  139.8486  166.6797 C.3     1  UNL1        0.0286
      3 C         142.8497  140.7452  166.4731 C.3     1  UNL1        0.0193
      4 C         142.7532  142.2044  166.8072 C.3     1  UNL1        0.0700
      5 C         141.4721  142.7669  167.3478 C.3     1  UNL1        0.0193
      6 C         140.2874  141.8703  167.5544 C.3     1  UNL1        0.0286
      7 C         142.0774  141.7524  166.9374 C.3     1  UNL1        0.1562
      8 O         141.0062  140.9417  167.1241 O.3     1  UNL1       -0.3572
      9 N         143.9379  143.1010  166.6007 N.3     1  UNL1       -0.2926
     10 H         144.5818  142.9203  167.3708 H       1  UNL1        0.1236
     11 C         144.7385  143.0066  165.3357 C.3     1  UNL1        0.1152
     12 C         144.1014  143.3366  164.0185 C.ar    1  UNL1        0.0765
     13 C         144.6861  142.7977  162.7466 C.ar    1  UNL1        0.0193
     14 C         144.0491  143.1278  161.4293 C.ar    1  UNL1        0.0411
     15 C         142.8273  143.9968  161.3839 C.ar    1  UNL1        0.1706
     16 C         142.2425  144.5357  162.6558 C.ar    1  UNL1        0.1682
     17 N         142.8796  144.2056  163.9731 N.ar    1  UNL1       -0.2304
     18 N         141.0207  145.4047  162.6104 N.am    1  UNL1       -0.2640
     19 C         140.3837  145.7348  161.2932 C.2     1  UNL1        0.2674
     20 O         139.1619  146.6038  161.2478 O.2     1  UNL1       -0.2708
     21 C         140.9684  145.1959  160.0212 C.3     1  UNL1        0.2416
     22 C         140.3313  145.5260  158.7040 C.3     1  UNL1        0.0574
     23 O         142.1902  144.3269  160.0666 O.3     1  UNL1       -0.4671
     24 H         140.6370  145.7584  163.4452 H       1  UNL1        0.1565
     25 C         139.1993  139.5146  167.4268 C.3     1  UNL1        0.0320
     26 C         138.1079  139.4650  166.3990 C.3     1  UNL1        0.0327
     27 C         138.1640  142.9647  163.5707 C.ar    1  UNL1        0.2250
     28 C         138.5043  142.7552  162.1249 C.ar    1  UNL1        0.0593
     29 C         138.8259  141.3791  161.6219 C.ar    1  UNL1        0.0254
     30 C         138.8072  140.2126  162.5646 C.ar    1  UNL1        0.0990
     31 N         139.1288  138.8365  162.0616 N.ar    1  UNL1       -0.2400
     32 C         139.1102  137.6700  163.0043 C.ar    1  UNL1        0.1281
     33 C         138.7698  137.8795  164.4502 C.ar    1  UNL1        0.1566
     34 F         138.7511  136.7129  165.3929 F       1  UNL1       -0.2028
     35 C         138.4482  139.2555  164.9532 C.ar    1  UNL1        0.0261
     36 C         138.4669  140.4221  164.0104 C.ar    1  UNL1        0.1002
     37 N         138.1453  141.7981  164.5134 N.ar    1  UNL1       -0.2104
     38 C         138.5433  144.8791  165.2857 C.3     1  UNL1        0.2542
     39 O         137.8423  144.3407  164.0737 O.3     1  UNL1       -0.4561
@<TRIPOS>BOND
     1    38    39    1
     2    39    27    1
     3    27    28   ar
     4    28    29   ar
     5    29    30   ar
     6    30    31   ar
     7    31    32   ar
     8    32    33   ar
     9    33    34    1
    10    33    35   ar
    11    35    26    1
    12    26    25    1
    13    25     1    1
    14     1     2    1
    15     2     3    1
    16     3     4    1
    17     4     9    1
    18     9    11    1
    19    11    12    1
    20    12    13   ar
    21    13    14   ar
    22    14    15   ar
    23    15    16   ar
    24    16    17   ar
    25    16    18    1
    26    18    19   am
    27    19    20    2
    28    19    21    1
    29    21    22    1
    30    21    23    1
    31     4     5    1
    32     5     6    1
    33     4     7    1
    34     7     8    1
    35    35    36   ar
    36    36    37   ar
    37    37    27   ar
    38    36    30   ar
    39     6     1    1
    40     8     1    1
    41    17    12   ar
    42    23    15    1
    43     9    10    1
    44    18    24    1
@<TRIPOS>MOLECULE
*****
 39 44 0 0 0
SMALL
GASTEIGER

@<TRIPOS>ATOM
      1 C         140.6550  139.9631  160.6562 C.3     1  UNL1        0.0932
      2 C         141.3929  141.2645  160.7654 C.3     1  UNL1        0.0286
      3 C         142.7926  141.2901  161.3039 C.3     1  UNL1        0.0193
      4 C         143.4546  140.0143  161.7332 C.3     1  UNL1        0.0700
      5 C         142.7167  138.7129  161.6241 C.3     1  UNL1        0.0193
      6 C         141.3169  138.6874  161.0855 C.3     1  UNL1        0.0286
      7 C         142.6862  139.9503  161.4444 C.3     1  UNL1        0.1562
      8 O         141.4205  139.9271  160.9575 O.3     1  UNL1       -0.3572
      9 N         144.8543  140.0399  162.2717 N.3     1  UNL1       -0.2926
     10 H         145.4065  140.6084  161.6296 H       1  UNL1        0.1236
     11 C         145.1176  140.5660  163.6515 C.3     1  UNL1        0.1152
     12 C         144.1014  140.3668  164.7367 C.ar    1  UNL1        0.0765
     13 C         143.7399  138.9803  165.1804 C.ar    1  UNL1        0.0193
     14 C         142.7237  138.7810  166.2656 C.ar    1  UNL1        0.0411
     15 C         142.0689  139.9684  166.9071 C.ar    1  UNL1        0.1706
     16 C         142.4303  141.3549  166.4634 C.ar    1  UNL1        0.1682
     17 N         143.4466  141.5542  165.3782 N.ar    1  UNL1       -0.2304
     18 N         141.7755  142.5422  167.1049 N.am    1  UNL1       -0.2640
     19 C         140.7593  142.3430  168.1901 C.2     1  UNL1        0.2674
     20 O         140.1045  143.5303  168.8316 O.2     1  UNL1       -0.2708
     21 C         140.3979  140.9564  168.6338 C.3     1  UNL1        0.2416
     22 C         139.3817  140.7572  169.7190 C.3     1  UNL1        0.0574
     23 O         141.0527  139.7691  167.9923 O.3     1  UNL1       -0.4671
     24 H         142.0127  143.4522  166.8137 H       1  UNL1        0.1565
     25 C         139.2553  139.9375  160.1177 C.3     1  UNL1        0.0320
     26 C         138.1030  140.3020  161.0063 C.3     1  UNL1        0.0327
     27 C         138.5326  144.3702  162.8811 C.ar    1  UNL1        0.2250
     28 C         138.7377  144.4958  164.3617 C.ar    1  UNL1        0.0593
     29 C         138.7997  143.2653  165.2173 C.ar    1  UNL1        0.0254
     30 C         138.6565  141.9093  164.5924 C.ar    1  UNL1        0.0990
     31 N         138.7184  140.6788  165.4481 N.ar    1  UNL1       -0.2400
     32 C         138.5752  139.3228  164.8232 C.ar    1  UNL1        0.1281
     33 C         138.3701  139.1971  163.3425 C.ar    1  UNL1        0.1566
     34 F         138.2269  137.8411  162.7176 F       1  UNL1       -0.2028
     35 C         138.3081  140.4276  162.4869 C.ar    1  UNL1        0.0261
     36 C         138.4513  141.7837  163.1119 C.ar    1  UNL1        0.1002
     37 N         138.3894  143.0142  162.2562 N.ar    1  UNL1       -0.2104
     38 C         139.7340  146.3154  161.6470 C.3     1  UNL1        0.2542
     39 O         138.4707  145.6007  162.0255 O.3     1  UNL1       -0.4561
@<TRIPOS>BOND
     1    38    39    1
     2    39    27    1
     3    27    28   ar
     4    28    29   ar
     5    29    30   ar
     6    30    31   ar
     7    31    32   ar
     8    32    33   ar
     9    33    34    1
    10    33    35   ar
    11    35    26    1
    12    26    25    1
    13    25     1    1
    14     1     2    1
    15     2     3    1
    16     3     4    1
    17     4     9    1
    18     9    11    1
    19    11    12    1
    20    12    13   ar
    21    13    14   ar
    22    14    15   ar
    23    15    16   ar
    24    16    17   ar
    25    16    18    1
    26    18    19   am
    27    19    20    2
    28    19    21    1
    29    21    22    1
    30    21    23    1
    31     4     5    1
    32     5     6    1
    33     4     7    1
    34     7     8    1
    35    35    36   ar
    36    36    37   ar
    37    37    27   ar
    38    36    30   ar
    39     6     1    1
    40     8     1    1
    41    17    12   ar
    42    23    15    1
    43     9    10    1
    44    18    24    1
@<TRIPOS>MOLECULE
*****
 39 44 0 0 0
SMALL
GASTEIGER

@<TRIPOS>ATOM
      1 C         141.5724  138.1911  164.7466 C.3     1  UNL1        0.0932
      2 C         140.1686  138.3119  165.2611 C.3     1  UNL1        0.0286
      3 C         139.0090  138.0999  164.3335 C.3     1  UNL1        0.0193
      4 C         139.2532  137.7671  162.8914 C.3     1  UNL1        0.0700
      5 C         140.6571  137.6463  162.3769 C.3     1  UNL1        0.0193
      6 C         141.8167  137.8583  163.3046 C.3     1  UNL1        0.0286
      7 C         139.9206  137.8744  163.3616 C.3     1  UNL1        0.1562
      8 O         140.9691  138.0661  164.2003 O.3     1  UNL1       -0.3572
      9 N         138.0937  137.5550  161.9638 N.3     1  UNL1       -0.2926
     10 H         137.3850  137.0442  162.4904 H       1  UNL1        0.1236
     11 C         137.4052  138.7338  161.3422 C.3     1  UNL1        0.1152
     12 C         138.2135  139.8183  160.6937 C.ar    1  UNL1        0.0765
     13 C         139.0565  139.5088  159.4921 C.ar    1  UNL1        0.0193
     14 C         139.8648  140.5932  158.8436 C.ar    1  UNL1        0.0411
     15 C         139.8302  141.9871  159.3965 C.ar    1  UNL1        0.1706
     16 C         138.9872  142.2966  160.5980 C.ar    1  UNL1        0.1682
     17 N         138.1789  141.2122  161.2466 N.ar    1  UNL1       -0.2304
     18 N         138.9526  143.6906  161.1509 N.am    1  UNL1       -0.2640
     19 C         139.7609  144.7750  160.5024 C.2     1  UNL1        0.2674
     20 O         139.7263  146.1689  161.0553 O.2     1  UNL1       -0.2708
     21 C         140.6039  144.4655  159.3008 C.3     1  UNL1        0.2416
     22 C         141.4122  145.5499  158.6523 C.3     1  UNL1        0.0574
     23 O         140.6385  143.0716  158.7479 O.3     1  UNL1       -0.4671
     24 H         138.3993  143.8937  161.9395 H       1  UNL1        0.1565
     25 C         142.7320  138.4032  165.6742 C.3     1  UNL1        0.0320
     26 C         143.1590  139.7951  166.0350 C.3     1  UNL1        0.0327
     27 C         140.7538  143.4695  165.0535 C.ar    1  UNL1        0.2250
     28 C         141.2244  144.4105  163.9844 C.ar    1  UNL1        0.0593
     29 C         142.4968  144.1267  163.2424 C.ar    1  UNL1        0.0254
     30 C         143.2985  142.9019  163.5696 C.ar    1  UNL1        0.0990
     31 N         144.5709  142.6181  162.8277 N.ar    1  UNL1       -0.2400
     32 C         145.3727  141.3934  163.1548 C.ar    1  UNL1        0.1281
     33 C         144.9021  140.4523  164.2240 C.ar    1  UNL1        0.1566
     34 F         145.7038  139.2275  164.5511 F       1  UNL1       -0.2028
     35 C         143.6297  140.7361  164.9659 C.ar    1  UNL1        0.0261
     36 C         142.8279  141.9609  164.6387 C.ar    1  UNL1        0.1002
     37 N         141.5555  142.2447  165.3806 N.ar    1  UNL1       -0.2104
     38 C         138.6438  144.9401  165.4213 C.3     1  UNL1        0.2542
     39 O         139.4814  143.7533  165.7954 O.3     1  UNL1       -0.4561
@<TRIPOS>BOND
     1    38    39    1
     2    39    27    1
     3    27    28   ar
     4    28    29   ar
     5    29    30   ar
     6    30    31   ar
     7    31    32   ar
     8    32    33   ar
     9    33    34    1
    10    33    35   ar
    11    35    26    1
    12    26    25    1
    13    25     1    1
    14     1     2    1
    15     2     3    1
    16     3     4    1
    17     4     9    1
    18     9    11    1
    19    11    12    1
    20    12    13   ar
    21    13    14   ar
    22    14    15   ar
    23    15    16   ar
    24    16    17   ar
    25    16    18    1
    26    18    19   am
    27    19    20    2
    28    19    21    1
    29    21    22    1
    30    21    23    1
    31     4     5    1
    32     5     6    1
    33     4     7    1
    34     7     8    1
    35    35    36   ar
    36    36    37   ar
    37    37    27   ar
    38    36    30   ar
    39     6     1    1
    40     8     1    1
    41    17    12   ar
    42    23    15    1
    43     9    10    1
    44    18    24    1
@<TRIPOS>MOLECULE
*****
 39 44 0 0 0
SMALL
GASTEIGER

@<TRIPOS>ATOM
      1 C         139.2634  137.8211  164.5925 C.3     1  UNL1        0.0932
      2 C         138.8271  138.0860  163.1821 C.3     1  UNL1        0.0286
      3 C         139.7909  137.8902  162.0495 C.3     1  UNL1        0.0193
      4 C         141.1911  137.4295  162.3274 C.3     1  UNL1        0.0700
      5 C         141.6275  137.1646  163.7379 C.3     1  UNL1        0.0193
      6 C         140.6636  137.3604  164.8705 C.3     1  UNL1        0.0286
      7 C         140.6987  137.5227  162.9807 C.3     1  UNL1        0.1562
      8 O         139.8272  137.6997  164.0048 O.3     1  UNL1       -0.3572
      9 N         142.1549  137.2337  161.1949 N.3     1  UNL1       -0.2926
     10 H         141.6930  137.5764  160.3525 H       1  UNL1        0.1236
     11 C         143.5074  137.8807  161.2407 C.3     1  UNL1        0.1152
     12 C         143.6759  139.2213  161.8920 C.ar    1  UNL1        0.0765
     13 C         144.7073  139.4098  162.9647 C.ar    1  UNL1        0.0193
     14 C         144.8757  140.7505  163.6160 C.ar    1  UNL1        0.0411
     15 C         144.0127  141.9027  163.1946 C.ar    1  UNL1        0.1706
     16 C         142.9813  141.7143  162.1220 C.ar    1  UNL1        0.1682
     17 N         142.8128  140.3736  161.4706 N.ar    1  UNL1       -0.2304
     18 N         142.1183  142.8666  161.7006 N.am    1  UNL1       -0.2640
     19 C         142.2867  144.2072  162.3519 C.2     1  UNL1        0.2674
     20 O         141.4237  145.3595  161.9305 O.2     1  UNL1       -0.2708
     21 C         143.3181  144.3957  163.4246 C.3     1  UNL1        0.2416
     22 C         143.4865  145.7363  164.0759 C.3     1  UNL1        0.0574
     23 O         144.1812  143.2434  163.8460 O.3     1  UNL1       -0.4671
     24 H         141.4413  142.7429  160.9966 H       1  UNL1        0.1565
     25 C         138.2996  138.0169  165.7251 C.3     1  UNL1        0.0320
     26 C         138.2083  139.3481  166.4106 C.3     1  UNL1        0.0327
     27 C         142.2370  140.2885  168.1810 C.ar    1  UNL1        0.2250
     28 C         143.0292  141.4534  167.6658 C.ar    1  UNL1        0.0593
     29 C         142.4785  142.3048  166.5604 C.ar    1  UNL1        0.0254
     30 C         141.1356  141.9913  165.9703 C.ar    1  UNL1        0.0990
     31 N         140.5849  142.8427  164.8649 N.ar    1  UNL1       -0.2400
     32 C         139.2420  142.5292  164.2747 C.ar    1  UNL1        0.1281
     33 C         138.4497  141.3643  164.7900 C.ar    1  UNL1        0.1566
     34 F         137.1069  141.0508  164.1998 F       1  UNL1       -0.2028
     35 C         139.0005  140.5129  165.8953 C.ar    1  UNL1        0.0261
     36 C         140.3434  140.8264  166.4855 C.ar    1  UNL1        0.1002
     37 N         140.8942  139.9751  167.5909 N.ar    1  UNL1       -0.2104
     38 C         142.8449  139.9711  170.6869 C.3     1  UNL1        0.2542
     39 O         142.7878  139.4371  169.2864 O.3     1  UNL1       -0.4561
@<TRIPOS>BOND
     1    38    39    1
     2    39    27    1
     3    27    28   ar
     4    28    29   ar
     5    29    30   ar
     6    30    31   ar
     7    31    32   ar
     8    32    33   ar
     9    33    34    1
    10    33    35   ar
    11    35    26    1
    12    26    25    1
    13    25     1    1
    14     1     2    1
    15     2     3    1
    16     3     4    1
    17     4     9    1
    18     9    11    1
    19    11    12    1
    20    12    13   ar
    21    13    14   ar
    22    14    15   ar
    23    15    16   ar
    24    16    17   ar
    25    16    18    1
    26    18    19   am
    27    19    20    2
    28    19    21    1
    29    21    22    1
    30    21    23    1
    31     4     5    1
    32     5     6    1
    33     4     7    1
    34     7     8    1
    35    35    36   ar
    36    36    37   ar
    37    37    27   ar
    38    36    30   ar
    39     6     1    1
    40     8     1    1
    41    17    12   ar
    42    23    15    1
    43     9    10    1
    44    18    24    1
@<TRIPOS>MOLECULE
*****
 39 44 0 0 0
SMALL
GASTEIGER

@<TRIPOS>ATOM
      1 C         144.6614  140.1958  163.2182 C.3     1  UNL1        0.0932
      2 C         143.9906  139.2823  164.2008 C.3     1  UNL1        0.0286
      3 C         142.9396  138.3196  163.7331 C.3     1  UNL1        0.0193
      4 C         142.5594  138.2706  162.2829 C.3     1  UNL1        0.0700
      5 C         143.2302  139.1842  161.3004 C.3     1  UNL1        0.0193
      6 C         144.2812  140.1468  161.7681 C.3     1  UNL1        0.0286
      7 C         143.1408  138.8148  162.4919 C.3     1  UNL1        0.1562
      8 O         144.0912  139.6852  162.9147 O.3     1  UNL1       -0.3572
      9 N         141.5084  137.3080  161.8152 N.3     1  UNL1       -0.2926
     10 H         141.4331  136.5842  162.5299 H       1  UNL1        0.1236
     11 C         140.1155  137.7929  161.5416 C.3     1  UNL1        0.1152
     12 C         139.5364  138.9099  162.3581 C.ar    1  UNL1        0.0765
     13 C         138.9736  138.6298  163.7201 C.ar    1  UNL1        0.0193
     14 C         138.3944  139.7468  164.5366 C.ar    1  UNL1        0.0411
     15 C         138.3779  141.1440  163.9912 C.ar    1  UNL1        0.1706
     16 C         138.9406  141.4242  162.6293 C.ar    1  UNL1        0.1682
     17 N         139.5199  140.3072  161.8127 N.ar    1  UNL1       -0.2304
     18 N         138.9242  142.8215  162.0839 N.am    1  UNL1       -0.2640
     19 C         138.3450  143.9385  162.9004 C.2     1  UNL1        0.2674
     20 O         138.3285  145.3358  162.3550 O.2     1  UNL1       -0.2708
     21 C         137.7822  143.6583  164.2624 C.3     1  UNL1        0.2416
     22 C         137.2030  144.7754  165.0789 C.3     1  UNL1        0.0574
     23 O         137.7987  142.2611  164.8078 O.3     1  UNL1       -0.4671
     24 H         139.2935  143.0054  161.1900 H       1  UNL1        0.1565
     25 C         145.7124  141.1585  163.6859 C.3     1  UNL1        0.0320
     26 C         145.3315  142.3220  164.5526 C.3     1  UNL1        0.0327
     27 C         142.2617  141.3518  167.6967 C.ar    1  UNL1        0.2250
     28 C         140.8833  141.9360  167.6046 C.ar    1  UNL1        0.0593
     29 C         140.5281  142.8437  166.4644 C.ar    1  UNL1        0.0254
     30 C         141.5513  143.1671  165.4164 C.ar    1  UNL1        0.0990
     31 N         141.1961  144.0748  164.2763 N.ar    1  UNL1       -0.2400
     32 C         142.2194  144.3983  163.2283 C.ar    1  UNL1        0.1281
     33 C         143.5979  143.8140  163.3204 C.ar    1  UNL1        0.1566
     34 F         144.6211  144.1374  162.2724 F       1  UNL1       -0.2028
     35 C         143.9531  142.9063  164.4605 C.ar    1  UNL1        0.0261
     36 C         142.9297  142.5829  165.5085 C.ar    1  UNL1        0.1002
     37 N         143.2849  141.6752  166.6487 N.ar    1  UNL1       -0.2104
     38 C         141.5636  140.0279  169.8203 C.3     1  UNL1        0.2542
     39 O         142.6169  140.4441  168.8368 O.3     1  UNL1       -0.4561
@<TRIPOS>BOND
     1    38    39    1
     2    39    27    1
     3    27    28   ar
     4    28    29   ar
     5    29    30   ar
     6    30    31   ar
     7    31    32   ar
     8    32    33   ar
     9    33    34    1
    10    33    35   ar
    11    35    26    1
    12    26    25    1
    13    25     1    1
    14     1     2    1
    15     2     3    1
    16     3     4    1
    17     4     9    1
    18     9    11    1
    19    11    12    1
    20    12    13   ar
    21    13    14   ar
    22    14    15   ar
    23    15    16   ar
    24    16    17   ar
    25    16    18    1
    26    18    19   am
    27    19    20    2
    28    19    21    1
    29    21    22    1
    30    21    23    1
    31     4     5    1
    32     5     6    1
    33     4     7    1
    34     7     8    1
    35    35    36   ar
    36    36    37   ar
    37    37    27   ar
    38    36    30   ar
    39     6     1    1
    40     8     1    1
    41    17    12   ar
    42    23    15    1
    43     9    10    1
    44    18    24    1
@<TRIPOS>MOLECULE
*****
 39 44 0 0 0
SMALL
GASTEIGER

@<TRIPOS>ATOM
      1 C         142.2367  142.5700  165.5213 C.3     1  UNL1        0.0932
      2 C         140.9507  142.6529  166.2891 C.3     1  UNL1        0.0286
      3 C         139.8195  143.4896  165.7693 C.3     1  UNL1        0.0193
      4 C         139.9741  144.2434  164.4816 C.3     1  UNL1        0.0700
      5 C         141.2601  144.1605  163.7139 C.3     1  UNL1        0.0193
      6 C         142.3914  143.3238  164.2338 C.3     1  UNL1        0.0286
      7 C         140.6219  143.7980  164.7266 C.3     1  UNL1        0.1562
      8 O         141.6448  143.0415  165.1966 O.3     1  UNL1       -0.3572
      9 N         138.8429  145.0800  163.9618 N.3     1  UNL1       -0.2926
     10 H         139.2540  145.7804  163.3447 H       1  UNL1        0.1236
     11 C         137.7222  144.4364  163.2004 C.3     1  UNL1        0.1152
     12 C         137.9774  143.1969  162.3952 C.ar    1  UNL1        0.0765
     13 C         137.5109  141.8642  162.9016 C.ar    1  UNL1        0.0193
     14 C         137.7660  140.6247  162.0964 C.ar    1  UNL1        0.0411
     15 C         138.4877  140.7177  160.7847 C.ar    1  UNL1        0.1706
     16 C         138.9542  142.0503  160.2783 C.ar    1  UNL1        0.1682
     17 N         138.6991  143.2899  161.0835 N.ar    1  UNL1       -0.2304
     18 N         139.6759  142.1434  158.9666 N.am    1  UNL1       -0.2640
     19 C         139.9311  140.9039  158.1613 C.2     1  UNL1        0.2674
     20 O         140.6527  140.9970  156.8497 O.2     1  UNL1       -0.2708
     21 C         139.4645  139.5712  158.6678 C.3     1  UNL1        0.2416
     22 C         139.7197  138.3317  157.8625 C.3     1  UNL1        0.0574
     23 O         138.7429  139.4781  159.9795 O.3     1  UNL1       -0.4671
     24 H         139.9821  143.0180  158.6342 H       1  UNL1        0.1565
     25 C         143.3679  141.7333  166.0411 C.3     1  UNL1        0.0320
     26 C         143.2316  140.2406  166.0994 C.3     1  UNL1        0.0327
     27 C         139.0998  138.5972  165.4085 C.ar    1  UNL1        0.2250
     28 C         138.8001  137.8222  164.1598 C.ar    1  UNL1        0.0593
     29 C         139.8776  137.5950  163.1413 C.ar    1  UNL1        0.0254
     30 C         141.2548  138.1428  163.3715 C.ar    1  UNL1        0.0990
     31 N         142.3323  137.9155  162.3530 N.ar    1  UNL1       -0.2400
     32 C         143.7096  138.4633  162.5833 C.ar    1  UNL1        0.1281
     33 C         144.0094  139.2384  163.8321 C.ar    1  UNL1        0.1566
     34 F         145.3866  139.7862  164.0623 F       1  UNL1       -0.2028
     35 C         142.9319  139.4656  164.8506 C.ar    1  UNL1        0.0261
     36 C         141.5546  138.9178  164.6203 C.ar    1  UNL1        0.1002
     37 N         140.4771  139.1450  165.6388 N.ar    1  UNL1       -0.2104
     38 C         137.3308  137.6542  167.0611 C.3     1  UNL1        0.2542
     39 O         138.0223  138.8245  166.4270 O.3     1  UNL1       -0.4561
@<TRIPOS>BOND
     1    38    39    1
     2    39    27    1
     3    27    28   ar
     4    28    29   ar
     5    29    30   ar
     6    30    31   ar
     7    31    32   ar
     8    32    33   ar
     9    33    34    1
    10    33    35   ar
    11    35    26    1
    12    26    25    1
    13    25     1    1
    14     1     2    1
    15     2     3    1
    16     3     4    1
    17     4     9    1
    18     9    11    1
    19    11    12    1
    20    12    13   ar
    21    13    14   ar
    22    14    15   ar
    23    15    16   ar
    24    16    17   ar
    25    16    18    1
    26    18    19   am
    27    19    20    2
    28    19    21    1
    29    21    22    1
    30    21    23    1
    31     4     5    1
    32     5     6    1
    33     4     7    1
    34     7     8    1
    35    35    36   ar
    36    36    37   ar
    37    37    27   ar
    38    36    30   ar
    39     6     1    1
    40     8     1    1
    41    17    12   ar
    42    23    15    1
    43     9    10    1
    44    18    24    1
@<TRIPOS>MOLECULE
*****
 39 44 0 0 0
SMALL
GASTEIGER

@<TRIPOS>ATOM
      1 C         141.5638  145.1408  162.5004 C.3     1  UNL1        0.0932
      2 C         142.3492  145.0627  163.7760 C.3     1  UNL1        0.0286
      3 C         143.5613  144.1828  163.8578 C.3     1  UNL1        0.0193
      4 C         143.9880  143.3810  162.6640 C.3     1  UNL1        0.0700
      5 C         143.2026  143.4591  161.3884 C.3     1  UNL1        0.0193
      6 C         141.9905  144.3390  161.3066 C.3     1  UNL1        0.0286
      7 C         143.3170  143.8490  162.5712 C.3     1  UNL1        0.1562
      8 O         142.2210  144.6446  162.4972 O.3     1  UNL1       -0.3572
      9 N         145.2001  142.5012  162.7458 N.3     1  UNL1       -0.2926
     10 H         145.8806  142.9907  163.3268 H       1  UNL1        0.1236
     11 C         145.0818  141.1107  163.2959 C.3     1  UNL1        0.1152
     12 C         143.7398  140.5753  163.6990 C.ar    1  UNL1        0.0765
     13 C         142.9035  139.8230  162.7065 C.ar    1  UNL1        0.0193
     14 C         141.5616  139.2876  163.1096 C.ar    1  UNL1        0.0411
     15 C         141.0559  139.5043  164.5051 C.ar    1  UNL1        0.1706
     16 C         141.8921  140.2565  165.4975 C.ar    1  UNL1        0.1682
     17 N         143.2341  140.7920  165.0944 N.ar    1  UNL1       -0.2304
     18 N         141.3864  140.4732  166.8929 N.am    1  UNL1       -0.2640
     19 C         140.0445  139.9378  167.2960 C.2     1  UNL1        0.2674
     20 O         139.5388  140.1545  168.6914 O.2     1  UNL1       -0.2708
     21 C         139.2082  139.1856  166.3036 C.3     1  UNL1        0.2416
     22 C         137.8663  138.6501  166.7066 C.3     1  UNL1        0.0574
     23 O         139.7139  138.9688  164.9081 O.3     1  UNL1       -0.4671
     24 H         141.9353  140.9669  167.5443 H       1  UNL1        0.1565
     25 C         140.3518  146.0206  162.4186 C.3     1  UNL1        0.0320
     26 C         139.0141  145.4261  162.0908 C.3     1  UNL1        0.0327
     27 C         138.4606  141.8684  159.3915 C.ar    1  UNL1        0.2250
     28 C         138.0673  140.5417  159.9704 C.ar    1  UNL1        0.0593
     29 C         137.8586  140.4009  161.4491 C.ar    1  UNL1        0.0254
     30 C         138.0431  141.5867  162.3489 C.ar    1  UNL1        0.0990
     31 N         137.8344  141.4459  163.8276 N.ar    1  UNL1       -0.2400
     32 C         138.0189  142.6318  164.7274 C.ar    1  UNL1        0.1281
     33 C         138.4122  143.9586  164.1485 C.ar    1  UNL1        0.1566
     34 F         138.5967  145.1444  165.0483 F       1  UNL1       -0.2028
     35 C         138.6209  144.0994  162.6698 C.ar    1  UNL1        0.0261
     36 C         138.4363  142.9134  161.7700 C.ar    1  UNL1        0.1002
     37 N         138.6451  143.0543  160.2913 N.ar    1  UNL1       -0.2104
     38 C         139.4607  140.9773  157.1654 C.3     1  UNL1        0.2542
     39 O         138.6693  142.0092  157.9128 O.3     1  UNL1       -0.4561
@<TRIPOS>BOND
     1    38    39    1
     2    39    27    1
     3    27    28   ar
     4    28    29   ar
     5    29    30   ar
     6    30    31   ar
     7    31    32   ar
     8    32    33   ar
     9    33    34    1
    10    33    35   ar
    11    35    26    1
    12    26    25    1
    13    25     1    1
    14     1     2    1
    15     2     3    1
    16     3     4    1
    17     4     9    1
    18     9    11    1
    19    11    12    1
    20    12    13   ar
    21    13    14   ar
    22    14    15   ar
    23    15    16   ar
    24    16    17   ar
    25    16    18    1
    26    18    19   am
    27    19    20    2
    28    19    21    1
    29    21    22    1
    30    21    23    1
    31     4     5    1
    32     5     6    1
    33     4     7    1
    34     7     8    1
    35    35    36   ar
    36    36    37   ar
    37    37    27   ar
    38    36    30   ar
    39     6     1    1
    40     8     1    1
    41    17    12   ar
    42    23    15    1
    43     9    10    1
    44    18    24    1
