@<TRIPOS>MOLECULE
*****
 30 33 0 0 0
SMALL
GASTEIGER

@<TRIPOS>ATOM
      1 C         141.8668  141.4439  164.7017 C.ar    1  UNL1        0.1679
      2 C         141.9017  142.9028  165.0490 C.ar    1  UNL1        0.0702
      3 C         141.7882  143.9344  163.9660 C.ar    1  UNL1        0.1620
      4 F         141.8232  145.3933  164.3132 F       1  UNL1       -0.2026
      5 C         141.6399  143.5071  162.5358 C.ar    1  UNL1        0.1549
      6 C         141.6049  142.0483  162.1886 C.ar    1  UNL1        0.0553
      7 C         141.7184  141.0167  163.2715 C.ar    1  UNL1        0.1753
      8 F         141.6835  139.5578  162.9243 F       1  UNL1       -0.2009
      9 S         141.5264  144.5388  161.4528 S.O2    1  UNL1        0.0773
     10 O         140.0646  144.6920  161.7519 O.2     1  UNL1       -0.1498
     11 O         142.9882  144.3857  161.1537 O.2     1  UNL1       -0.1498
     12 N         141.4129  145.5705  160.3699 N.pl3   1  UNL1       -0.1936
     13 H         141.2747  146.5167  160.6040 H       1  UNL1        0.1758
     14 C         141.5099  145.1605  158.9302 C.ar    1  UNL1        0.1786
     15 N         142.2878  145.8700  157.8619 N.ar    1  UNL1       -0.2214
     16 C         142.1047  145.1170  156.5776 C.ar    1  UNL1        0.1079
     17 C         141.2137  143.9419  156.8522 C.ar    1  UNL1        0.0588
     18 S         140.8460  143.9688  158.3063 S.2     1  UNL1       -0.0497
     19 O         141.9802  140.4122  165.7847 O.3     1  UNL1       -0.4764
     20 C         139.5124  139.5595  166.3568 C.3     1  UNL1        0.0799
     21 C         138.6647  139.5176  167.5936 C.3     1  UNL1        0.0096
     22 C         139.4594  140.1084  168.7204 C.3     1  UNL1        0.0042
     23 C         140.7981  140.5154  168.1799 C.3     1  UNL1        0.0439
     24 C         140.8308  140.1762  166.7191 C.3     1  UNL1        0.1714
     25 C         137.9950  141.3109  164.0590 C.3     1  UNL1        0.1533
     26 N         138.4144  139.8756  163.9403 N.ar    1  UNL1       -0.2527
     27 N         138.2099  138.9933  162.7445 N.ar    1  UNL1       -0.1679
     28 C         138.7810  137.6430  163.0617 C.ar    1  UNL1        0.1213
     29 C         139.3384  137.6908  164.4535 C.ar    1  UNL1        0.0369
     30 C         139.1118  139.0706  164.9965 C.ar    1  UNL1        0.0603
@<TRIPOS>BOND
     1    25    26    1
     2    26    27   ar
     3    27    28   ar
     4    28    29   ar
     5    29    30   ar
     6    20    30    1
     7    20    21    1
     8    21    22    1
     9    22    23    1
    10    23    24    1
    11    24    19    1
    12    19     1    1
    13     1     2   ar
    14     2     3   ar
    15     3     4    1
    16     3     5   ar
    17     5     9    1
    18     9    10    2
    19     9    11    2
    20     9    12    1
    21    12    14    1
    22    14    15   ar
    23    15    16   ar
    24    16    17   ar
    25    17    18   ar
    26     5     6   ar
    27     6     7   ar
    28     7     8    1
    29    30    26   ar
    30    24    20    1
    31     7     1   ar
    32    18    14   ar
    33    12    13    1
@<TRIPOS>MOLECULE
*****
 30 33 0 0 0
SMALL
GASTEIGER

@<TRIPOS>ATOM
      1 C         140.1113  141.5139  165.0334 C.ar    1  UNL1        0.1679
      2 C         138.8438  142.2905  164.8334 C.ar    1  UNL1        0.0702
      3 C         138.7365  143.2732  163.7052 C.ar    1  UNL1        0.1620
      4 F         137.4689  144.0499  163.5051 F       1  UNL1       -0.2026
      5 C         139.8967  143.4791  162.7770 C.ar    1  UNL1        0.1549
      6 C         141.1643  142.7025  162.9771 C.ar    1  UNL1        0.0553
      7 C         141.2716  141.7198  164.1053 C.ar    1  UNL1        0.1753
      8 F         142.5392  140.9431  164.3054 F       1  UNL1       -0.2009
      9 S         139.7894  144.4618  161.6488 S.O2    1  UNL1        0.0773
     10 O         140.6092  145.4466  162.4285 O.2     1  UNL1       -0.1498
     11 O         138.9695  143.4771  160.8690 O.2     1  UNL1       -0.1498
     12 N         139.6820  145.4445  160.5206 N.pl3   1  UNL1       -0.1936
     13 H         139.0314  146.1817  160.5702 H       1  UNL1        0.1758
     14 C         140.5661  145.3040  159.3169 C.ar    1  UNL1        0.1786
     15 N         141.8883  144.5972  159.2718 N.ar    1  UNL1       -0.2214
     16 C         142.4224  144.7021  157.8740 C.ar    1  UNL1        0.1079
     17 C         141.4303  145.4738  157.0553 C.ar    1  UNL1        0.0588
     18 S         140.2829  145.8458  157.9471 S.2     1  UNL1       -0.0497
     19 O         140.2187  140.5312  166.1617 O.3     1  UNL1       -0.4764
     20 C         139.2494  138.2066  165.2664 C.3     1  UNL1        0.0799
     21 C         138.1662  137.2682  165.7090 C.3     1  UNL1        0.0096
     22 C         137.5328  137.8402  166.9426 C.3     1  UNL1        0.0042
     23 C         138.2246  139.1322  167.2623 C.3     1  UNL1        0.0439
     24 C         139.2855  139.3586  166.2263 C.3     1  UNL1        0.1714
     25 C         138.2823  138.0801  162.1521 C.3     1  UNL1        0.1533
     26 N         139.6956  137.9667  162.6418 N.ar    1  UNL1       -0.2527
     27 N         140.9125  137.7753  161.7860 N.ar    1  UNL1       -0.1679
     28 C         142.1091  137.7151  162.6884 C.ar    1  UNL1        0.1213
     29 C         141.6317  137.8694  164.1021 C.ar    1  UNL1        0.0369
     30 C         140.1401  138.0249  164.0732 C.ar    1  UNL1        0.0603
@<TRIPOS>BOND
     1    25    26    1
     2    26    27   ar
     3    27    28   ar
     4    28    29   ar
     5    29    30   ar
     6    20    30    1
     7    20    21    1
     8    21    22    1
     9    22    23    1
    10    23    24    1
    11    24    19    1
    12    19     1    1
    13     1     2   ar
    14     2     3   ar
    15     3     4    1
    16     3     5   ar
    17     5     9    1
    18     9    10    2
    19     9    11    2
    20     9    12    1
    21    12    14    1
    22    14    15   ar
    23    15    16   ar
    24    16    17   ar
    25    17    18   ar
    26     5     6   ar
    27     6     7   ar
    28     7     8    1
    29    30    26   ar
    30    24    20    1
    31     7     1   ar
    32    18    14   ar
    33    12    13    1
@<TRIPOS>MOLECULE
*****
 30 33 0 0 0
SMALL
GASTEIGER

@<TRIPOS>ATOM
      1 C         141.1434  141.4462  164.5400 C.ar    1  UNL1        0.1679
      2 C         141.4227  141.1206  163.1027 C.ar    1  UNL1        0.0702
      3 C         141.3334  142.1946  162.0594 C.ar    1  UNL1        0.1620
      4 F         141.6127  141.8690  160.6220 F       1  UNL1       -0.2026
      5 C         140.9647  143.5942  162.4534 C.ar    1  UNL1        0.1549
      6 C         140.6854  143.9198  163.8907 C.ar    1  UNL1        0.0553
      7 C         140.7747  142.8458  164.9340 C.ar    1  UNL1        0.1753
      8 F         140.4954  143.1714  166.3714 F       1  UNL1       -0.2009
      9 S         140.8753  144.6682  161.4100 S.O2    1  UNL1        0.0773
     10 O         142.3725  144.7175  161.3326 O.2     1  UNL1       -0.1498
     11 O         139.3782  144.6188  161.4874 O.2     1  UNL1       -0.1498
     12 N         140.7860  145.7421  160.3667 N.pl3   1  UNL1       -0.1936
     13 H         140.5453  146.6610  160.6254 H       1  UNL1        0.1758
     14 C         141.0635  145.4160  158.9290 C.ar    1  UNL1        0.1786
     15 N         142.1753  145.9809  158.0955 N.ar    1  UNL1       -0.2214
     16 C         142.0768  145.3819  156.7239 C.ar    1  UNL1        0.1079
     17 C         140.9040  144.4467  156.7096 C.ar    1  UNL1        0.0588
     18 S         140.2777  144.4678  158.0726 S.2     1  UNL1       -0.0497
     19 O         141.2328  140.3722  165.5835 O.3     1  UNL1       -0.4764
     20 C         138.7941  139.2796  165.6426 C.3     1  UNL1        0.0799
     21 C         137.7953  138.9722  166.7187 C.3     1  UNL1        0.0096
     22 C         138.3776  139.4096  168.0302 C.3     1  UNL1        0.0042
     23 C         139.7361  139.9873  167.7645 C.3     1  UNL1        0.0439
     24 C         139.9935  139.9069  166.2889 C.3     1  UNL1        0.1714
     25 C         137.5647  141.3479  163.4379 C.3     1  UNL1        0.1533
     26 N         138.0582  139.9580  163.1640 N.ar    1  UNL1       -0.2527
     27 N         138.0733  139.2749  161.8287 N.ar    1  UNL1       -0.1679
     28 C         138.6476  137.9020  162.0168 C.ar    1  UNL1        0.1213
     29 C         138.9875  137.7367  163.4684 C.ar    1  UNL1        0.0369
     30 C         138.6232  139.0074  164.1774 C.ar    1  UNL1        0.0603
@<TRIPOS>BOND
     1    25    26    1
     2    26    27   ar
     3    27    28   ar
     4    28    29   ar
     5    29    30   ar
     6    20    30    1
     7    20    21    1
     8    21    22    1
     9    22    23    1
    10    23    24    1
    11    24    19    1
    12    19     1    1
    13     1     2   ar
    14     2     3   ar
    15     3     4    1
    16     3     5   ar
    17     5     9    1
    18     9    10    2
    19     9    11    2
    20     9    12    1
    21    12    14    1
    22    14    15   ar
    23    15    16   ar
    24    16    17   ar
    25    17    18   ar
    26     5     6   ar
    27     6     7   ar
    28     7     8    1
    29    30    26   ar
    30    24    20    1
    31     7     1   ar
    32    18    14   ar
    33    12    13    1
@<TRIPOS>MOLECULE
*****
 30 33 0 0 0
SMALL
GASTEIGER

@<TRIPOS>ATOM
      1 C         139.5326  141.2939  165.2115 C.ar    1  UNL1        0.1679
      2 C         139.2395  142.7290  165.5346 C.ar    1  UNL1        0.0702
      3 C         139.5503  143.8017  164.5333 C.ar    1  UNL1        0.1620
      4 F         139.2572  145.2370  164.8563 F       1  UNL1       -0.2026
      5 C         140.1543  143.4393  163.2089 C.ar    1  UNL1        0.1549
      6 C         140.4474  142.0042  162.8859 C.ar    1  UNL1        0.0553
      7 C         140.1366  140.9314  163.8872 C.ar    1  UNL1        0.1753
      8 F         140.4297  139.4962  163.5641 F       1  UNL1       -0.2009
      9 S         140.4652  144.5121  162.2076 S.O2    1  UNL1        0.0773
     10 O         141.8318  144.6732  162.8045 O.2     1  UNL1       -0.1498
     11 O         139.0985  144.3510  161.6107 O.2     1  UNL1       -0.1498
     12 N         140.7760  145.5848  161.2064 N.pl3   1  UNL1       -0.1936
     13 H         140.6955  146.5328  161.4596 H       1  UNL1        0.1758
     14 C         141.2096  145.2133  159.8193 C.ar    1  UNL1        0.1786
     15 N         142.4111  144.3894  159.4620 N.ar    1  UNL1       -0.2214
     16 C         142.4619  144.2673  157.9679 C.ar    1  UNL1        0.1079
     17 C         141.2917  145.0157  157.4016 C.ar    1  UNL1        0.0588
     18 S         140.5177  145.6004  158.5459 S.2     1  UNL1       -0.0497
     19 O         139.2217  140.2211  166.2128 O.3     1  UNL1       -0.4764
     20 C         141.4957  139.9577  167.5928 C.3     1  UNL1        0.0799
     21 C         141.8545  139.9202  169.0488 C.3     1  UNL1        0.0096
     22 C         140.5903  140.0718  169.8419 C.3     1  UNL1        0.0042
     23 C         139.4502  140.2029  168.8760 C.3     1  UNL1        0.0439
     24 C         140.0098  140.1324  167.4860 C.3     1  UNL1        0.1714
     25 C         143.0346  142.4299  166.1199 C.3     1  UNL1        0.1533
     26 N         143.1619  140.9772  165.7682 N.ar    1  UNL1       -0.2527
     27 N         144.0188  140.4059  164.6777 N.ar    1  UNL1       -0.1679
     28 C         143.8411  138.9165  164.6807 C.ar    1  UNL1        0.1213
     29 C         142.8743  138.5673  165.7732 C.ar    1  UNL1        0.0369
     30 C         142.4545  139.8409  166.4452 C.ar    1  UNL1        0.0603
@<TRIPOS>BOND
     1    25    26    1
     2    26    27   ar
     3    27    28   ar
     4    28    29   ar
     5    29    30   ar
     6    20    30    1
     7    20    21    1
     8    21    22    1
     9    22    23    1
    10    23    24    1
    11    24    19    1
    12    19     1    1
    13     1     2   ar
    14     2     3   ar
    15     3     4    1
    16     3     5   ar
    17     5     9    1
    18     9    10    2
    19     9    11    2
    20     9    12    1
    21    12    14    1
    22    14    15   ar
    23    15    16   ar
    24    16    17   ar
    25    17    18   ar
    26     5     6   ar
    27     6     7   ar
    28     7     8    1
    29    30    26   ar
    30    24    20    1
    31     7     1   ar
    32    18    14   ar
    33    12    13    1
@<TRIPOS>MOLECULE
*****
 30 33 0 0 0
SMALL
GASTEIGER

@<TRIPOS>ATOM
      1 C         140.2053  142.2475  164.6861 C.ar    1  UNL1        0.1679
      2 C         140.8280  143.6016  164.8548 C.ar    1  UNL1        0.0702
      3 C         141.1566  144.4314  163.6493 C.ar    1  UNL1        0.1620
      4 F         141.7794  145.7856  163.8180 F       1  UNL1       -0.2026
      5 C         140.8626  143.9071  162.2750 C.ar    1  UNL1        0.1549
      6 C         140.2399  142.5529  162.1063 C.ar    1  UNL1        0.0553
      7 C         139.9112  141.7231  163.3118 C.ar    1  UNL1        0.1753
      8 F         139.2885  140.3689  163.1432 F       1  UNL1       -0.2009
      9 S         141.1912  144.7369  161.0694 S.O2    1  UNL1        0.0773
     10 O         139.7563  145.1624  160.9712 O.2     1  UNL1       -0.1498
     11 O         142.6262  144.3114  161.1677 O.2     1  UNL1       -0.1498
     12 N         141.5199  145.5668  159.8639 N.pl3   1  UNL1       -0.1936
     13 H         142.0327  146.4010  159.9655 H       1  UNL1        0.1758
     14 C         141.0672  145.1256  158.5036 C.ar    1  UNL1        0.1786
     15 N         141.2201  143.7494  157.9268 N.ar    1  UNL1       -0.2214
     16 C         140.6295  143.7565  156.5480 C.ar    1  UNL1        0.1079
     17 C         140.1115  145.1370  156.2726 C.ar    1  UNL1        0.0588
     18 S         140.3820  145.9832  157.4813 S.2     1  UNL1       -0.0497
     19 O         139.8766  141.4176  165.8917 O.3     1  UNL1       -0.4764
     20 C         141.3696  140.8548  168.0362 C.3     1  UNL1        0.0799
     21 C         142.4907  139.9017  168.3276 C.3     1  UNL1        0.0096
     22 C         142.7764  139.1255  167.0762 C.3     1  UNL1        0.0042
     23 C         141.8319  139.5989  166.0114 C.3     1  UNL1        0.0439
     24 C         140.9625  140.6677  166.6047 C.3     1  UNL1        0.1714
     25 C         138.8702  140.2480  170.0448 C.3     1  UNL1        0.1533
     26 N         139.6135  141.5458  169.9293 N.ar    1  UNL1       -0.2527
     27 N         139.3385  142.7925  170.7167 N.ar    1  UNL1       -0.1679
     28 C         140.3173  143.8419  170.2801 C.ar    1  UNL1        0.1213
     29 C         141.1974  143.2437  169.2228 C.ar    1  UNL1        0.0369
     30 C         140.7624  141.8246  169.0060 C.ar    1  UNL1        0.0603
@<TRIPOS>BOND
     1    25    26    1
     2    26    27   ar
     3    27    28   ar
     4    28    29   ar
     5    29    30   ar
     6    20    30    1
     7    20    21    1
     8    21    22    1
     9    22    23    1
    10    23    24    1
    11    24    19    1
    12    19     1    1
    13     1     2   ar
    14     2     3   ar
    15     3     4    1
    16     3     5   ar
    17     5     9    1
    18     9    10    2
    19     9    11    2
    20     9    12    1
    21    12    14    1
    22    14    15   ar
    23    15    16   ar
    24    16    17   ar
    25    17    18   ar
    26     5     6   ar
    27     6     7   ar
    28     7     8    1
    29    30    26   ar
    30    24    20    1
    31     7     1   ar
    32    18    14   ar
    33    12    13    1
@<TRIPOS>MOLECULE
*****
 30 33 0 0 0
SMALL
GASTEIGER

@<TRIPOS>ATOM
      1 C         140.2509  141.5558  164.3003 C.ar    1  UNL1        0.1679
      2 C         140.6037  142.9539  164.7135 C.ar    1  UNL1        0.0702
      3 C         140.9311  143.9835  163.6729 C.ar    1  UNL1        0.1620
      4 F         141.2840  145.3816  164.0861 F       1  UNL1       -0.2026
      5 C         140.9055  143.6149  162.2191 C.ar    1  UNL1        0.1549
      6 C         140.5527  142.2168  161.8059 C.ar    1  UNL1        0.0553
      7 C         140.2254  141.1873  162.8465 C.ar    1  UNL1        0.1753
      8 F         139.8725  139.7891  162.4334 F       1  UNL1       -0.2009
      9 S         141.2329  144.6445  161.1785 S.O2    1  UNL1        0.0773
     10 O         142.6950  144.4655  161.4614 O.2     1  UNL1       -0.1498
     11 O         139.7708  144.8235  160.8956 O.2     1  UNL1       -0.1498
     12 N         141.5603  145.6741  160.1380 N.pl3   1  UNL1       -0.1936
     13 H         141.8833  146.5634  160.4100 H       1  UNL1        0.1758
     14 C         141.3956  145.3486  158.6829 C.ar    1  UNL1        0.1786
     15 N         140.3909  145.9588  157.7512 N.ar    1  UNL1       -0.2214
     16 C         140.5810  145.3431  156.3967 C.ar    1  UNL1        0.1079
     17 C         141.7033  144.3523  156.4913 C.ar    1  UNL1        0.0588
     18 S         142.2067  144.3557  157.9043 S.2     1  UNL1       -0.0497
     19 O         139.9235  140.5262  165.3409 O.3     1  UNL1       -0.4764
     20 C         142.2704  139.3965  165.9414 C.3     1  UNL1        0.0799
     21 C         143.0195  139.1176  167.2107 C.3     1  UNL1        0.0096
     22 C         142.1919  139.6190  168.3570 C.3     1  UNL1        0.0042
     23 C         140.9315  140.2077  167.7961 C.3     1  UNL1        0.0439
     24 C         140.9800  140.0702  166.3032 C.3     1  UNL1        0.1714
     25 C         141.0485  137.0505  164.0300 C.3     1  UNL1        0.1533
     26 N         142.1694  137.9823  163.6754 N.ar    1  UNL1       -0.2527
     27 N         142.9254  137.9993  162.3799 N.ar    1  UNL1       -0.1679
     28 C         143.9542  139.0880  162.4578 C.ar    1  UNL1        0.1213
     29 C         143.8340  139.7439  163.8015 C.ar    1  UNL1        0.0369
     30 C         142.7310  139.0605  164.5540 C.ar    1  UNL1        0.0603
@<TRIPOS>BOND
     1    25    26    1
     2    26    27   ar
     3    27    28   ar
     4    28    29   ar
     5    29    30   ar
     6    20    30    1
     7    20    21    1
     8    21    22    1
     9    22    23    1
    10    23    24    1
    11    24    19    1
    12    19     1    1
    13     1     2   ar
    14     2     3   ar
    15     3     4    1
    16     3     5   ar
    17     5     9    1
    18     9    10    2
    19     9    11    2
    20     9    12    1
    21    12    14    1
    22    14    15   ar
    23    15    16   ar
    24    16    17   ar
    25    17    18   ar
    26     5     6   ar
    27     6     7   ar
    28     7     8    1
    29    30    26   ar
    30    24    20    1
    31     7     1   ar
    32    18    14   ar
    33    12    13    1
@<TRIPOS>MOLECULE
*****
 30 33 0 0 0
SMALL
GASTEIGER

@<TRIPOS>ATOM
      1 C         142.1613  142.8374  164.7181 C.ar    1  UNL1        0.1679
      2 C         140.9949  142.4771  163.8464 C.ar    1  UNL1        0.0702
      3 C         140.7756  143.2000  162.5506 C.ar    1  UNL1        0.1620
      4 F         139.6092  142.8397  161.6788 F       1  UNL1       -0.2026
      5 C         141.7227  144.2831  162.1264 C.ar    1  UNL1        0.1549
      6 C         142.8890  144.6434  162.9980 C.ar    1  UNL1        0.0553
      7 C         143.1083  143.9205  164.2939 C.ar    1  UNL1        0.1753
      8 F         144.2747  144.2807  165.1656 F       1  UNL1       -0.2009
      9 S         141.5033  145.0060  160.8304 S.O2    1  UNL1        0.0773
     10 O         140.4007  145.8032  161.4618 O.2     1  UNL1       -0.1498
     11 O         142.6059  144.2088  160.1990 O.2     1  UNL1       -0.1498
     12 N         141.2839  145.7288  159.5346 N.pl3   1  UNL1       -0.1936
     13 H         141.6507  146.6336  159.4074 H       1  UNL1        0.1758
     14 C         140.5057  145.0732  158.4324 C.ar    1  UNL1        0.1786
     15 N         139.6922  143.8188  158.5530 N.ar    1  UNL1       -0.2214
     16 C         139.0881  143.5273  157.2114 C.ar    1  UNL1        0.1079
     17 C         139.5282  144.6017  156.2615 C.ar    1  UNL1        0.0588
     18 S         140.4043  145.5572  157.0162 S.2     1  UNL1       -0.0497
     19 O         142.3806  142.1145  166.0140 O.3     1  UNL1       -0.4764
     20 C         142.5984  139.6350  166.9885 C.3     1  UNL1        0.0799
     21 C         143.3811  138.4122  166.6115 C.3     1  UNL1        0.0096
     22 C         144.2030  138.7427  165.4010 C.3     1  UNL1        0.0042
     23 C         143.9282  140.1699  165.0298 C.3     1  UNL1        0.0439
     24 C         142.9365  140.7213  166.0110 C.3     1  UNL1        0.1714
     25 C         139.3704  140.0626  166.7716 C.3     1  UNL1        0.1533
     26 N         140.1613  139.9476  168.0410 N.ar    1  UNL1       -0.2527
     27 N         139.6073  140.0090  169.4336 N.ar    1  UNL1       -0.1679
     28 C         140.7486  139.8504  170.3940 C.ar    1  UNL1        0.1213
     29 C         142.0080  139.6910  169.5948 C.ar    1  UNL1        0.0369
     30 C         141.6450  139.7511  168.1407 C.ar    1  UNL1        0.0603
@<TRIPOS>BOND
     1    25    26    1
     2    26    27   ar
     3    27    28   ar
     4    28    29   ar
     5    29    30   ar
     6    20    30    1
     7    20    21    1
     8    21    22    1
     9    22    23    1
    10    23    24    1
    11    24    19    1
    12    19     1    1
    13     1     2   ar
    14     2     3   ar
    15     3     4    1
    16     3     5   ar
    17     5     9    1
    18     9    10    2
    19     9    11    2
    20     9    12    1
    21    12    14    1
    22    14    15   ar
    23    15    16   ar
    24    16    17   ar
    25    17    18   ar
    26     5     6   ar
    27     6     7   ar
    28     7     8    1
    29    30    26   ar
    30    24    20    1
    31     7     1   ar
    32    18    14   ar
    33    12    13    1
@<TRIPOS>MOLECULE
*****
 30 33 0 0 0
SMALL
GASTEIGER

@<TRIPOS>ATOM
      1 C         140.6696  142.8873  165.4851 C.ar    1  UNL1        0.1679
      2 C         139.3621  143.5996  165.3037 C.ar    1  UNL1        0.0702
      3 C         138.7004  143.6214  163.9578 C.ar    1  UNL1        0.1620
      4 F         137.3928  144.3337  163.7763 F       1  UNL1       -0.2026
      5 C         139.3463  142.9310  162.7932 C.ar    1  UNL1        0.1549
      6 C         140.6538  142.2187  162.9746 C.ar    1  UNL1        0.0553
      7 C         141.3155  142.1969  164.3206 C.ar    1  UNL1        0.1753
      8 F         142.6231  141.4846  164.5020 F       1  UNL1       -0.2009
      9 S         138.6845  142.9529  161.4472 S.O2    1  UNL1        0.0773
     10 O         138.1198  141.5870  161.7027 O.2     1  UNL1       -0.1498
     11 O         139.2492  144.3188  161.1917 O.2     1  UNL1       -0.1498
     12 N         138.0227  142.9747  160.1013 N.pl3   1  UNL1       -0.1936
     13 H         137.0983  143.3015  160.0125 H       1  UNL1        0.1758
     14 C         138.7695  142.4986  158.8906 C.ar    1  UNL1        0.1786
     15 N         140.1485  141.9087  158.8807 N.ar    1  UNL1       -0.2214
     16 C         140.4995  141.5743  157.4612 C.ar    1  UNL1        0.1079
     17 C         139.3374  141.9576  156.5937 C.ar    1  UNL1        0.0588
     18 S         138.2680  142.5289  157.4772 S.2     1  UNL1       -0.0497
     19 O         141.3314  142.8654  166.8312 O.3     1  UNL1       -0.4764
     20 C         140.0060  140.8729  168.0219 C.3     1  UNL1        0.0799
     21 C         139.4255  140.6521  169.3872 C.3     1  UNL1        0.0096
     22 C         139.6944  141.8779  170.2090 C.3     1  UNL1        0.0042
     23 C         140.4411  142.8562  169.3515 C.3     1  UNL1        0.0439
     24 C         140.6337  142.2350  167.9998 C.3     1  UNL1        0.1714
     25 C         142.5506  139.2235  166.8159 C.3     1  UNL1        0.1533
     26 N         141.1354  139.1438  166.3249 N.ar    1  UNL1       -0.2527
     27 N         140.6415  138.2920  165.1934 N.ar    1  UNL1       -0.1679
     28 C         139.1666  138.5236  165.0484 C.ar    1  UNL1        0.1213
     29 C         138.7490  139.5186  166.0903 C.ar    1  UNL1        0.0369
     30 C         139.9659  139.9019  166.8793 C.ar    1  UNL1        0.0603
@<TRIPOS>BOND
     1    25    26    1
     2    26    27   ar
     3    27    28   ar
     4    28    29   ar
     5    29    30   ar
     6    20    30    1
     7    20    21    1
     8    21    22    1
     9    22    23    1
    10    23    24    1
    11    24    19    1
    12    19     1    1
    13     1     2   ar
    14     2     3   ar
    15     3     4    1
    16     3     5   ar
    17     5     9    1
    18     9    10    2
    19     9    11    2
    20     9    12    1
    21    12    14    1
    22    14    15   ar
    23    15    16   ar
    24    16    17   ar
    25    17    18   ar
    26     5     6   ar
    27     6     7   ar
    28     7     8    1
    29    30    26   ar
    30    24    20    1
    31     7     1   ar
    32    18    14   ar
    33    12    13    1
@<TRIPOS>MOLECULE
*****
 30 33 0 0 0
SMALL
GASTEIGER

@<TRIPOS>ATOM
      1 C         142.7838  140.1969  166.4872 C.ar    1  UNL1        0.1679
      2 C         143.3539  141.5723  166.6697 C.ar    1  UNL1        0.0702
      3 C         143.6638  142.4207  165.4722 C.ar    1  UNL1        0.1620
      4 F         144.2338  143.7962  165.6547 F       1  UNL1       -0.2026
      5 C         143.4037  141.8937  164.0921 C.ar    1  UNL1        0.1549
      6 C         142.8337  140.5183  163.9096 C.ar    1  UNL1        0.0553
      7 C         142.5238  139.6699  165.1071 C.ar    1  UNL1        0.1753
      8 F         141.9537  138.2945  164.9246 F       1  UNL1       -0.2009
      9 S         143.7136  142.7422  162.8946 S.O2    1  UNL1        0.0773
     10 O         145.0990  142.1690  162.8471 O.2     1  UNL1       -0.1498
     11 O         142.3283  143.3154  162.9420 O.2     1  UNL1       -0.1498
     12 N         144.0236  143.5906  161.6970 N.pl3   1  UNL1       -0.1936
     13 H         144.6228  144.3667  161.7854 H       1  UNL1        0.1758
     14 C         143.4206  143.2565  160.3648 C.ar    1  UNL1        0.1786
     15 N         142.4772  144.1211  159.5822 N.ar    1  UNL1       -0.2214
     16 C         142.1287  143.3981  158.3150 C.ar    1  UNL1        0.1079
     17 C         142.8568  142.0866  158.3144 C.ar    1  UNL1        0.0588
     18 S         143.6553  141.9991  159.5813 S.2     1  UNL1       -0.0497
     19 O         142.4739  139.3485  167.6848 O.3     1  UNL1       -0.4764
     20 C         139.9934  140.1403  168.2886 C.3     1  UNL1        0.0799
     21 C         139.2720  140.4953  169.5550 C.3     1  UNL1        0.0096
     22 C         140.2353  140.3448  170.6950 C.3     1  UNL1        0.0042
     23 C         141.5520  139.8969  170.1331 C.3     1  UNL1        0.0439
     24 C         141.4025  139.7705  168.6459 C.3     1  UNL1        0.1714
     25 C         139.9949  142.6708  166.2279 C.3     1  UNL1        0.1533
     26 N         139.4090  141.3161  165.9603 N.ar    1  UNL1       -0.2527
     27 N         138.7209  140.8867  164.6985 N.ar    1  UNL1       -0.1679
     28 C         138.2950  139.4582  164.8658 C.ar    1  UNL1        0.1213
     29 C         138.7198  139.0048  166.2311 C.ar    1  UNL1        0.0369
     30 C         139.4083  140.1530  166.9075 C.ar    1  UNL1        0.0603
@<TRIPOS>BOND
     1    25    26    1
     2    26    27   ar
     3    27    28   ar
     4    28    29   ar
     5    29    30   ar
     6    20    30    1
     7    20    21    1
     8    21    22    1
     9    22    23    1
    10    23    24    1
    11    24    19    1
    12    19     1    1
    13     1     2   ar
    14     2     3   ar
    15     3     4    1
    16     3     5   ar
    17     5     9    1
    18     9    10    2
    19     9    11    2
    20     9    12    1
    21    12    14    1
    22    14    15   ar
    23    15    16   ar
    24    16    17   ar
    25    17    18   ar
    26     5     6   ar
    27     6     7   ar
    28     7     8    1
    29    30    26   ar
    30    24    20    1
    31     7     1   ar
    32    18    14   ar
    33    12    13    1
