@<TRIPOS>MOLECULE
*****
 34 38 0 0 0
SMALL
GASTEIGER

@<TRIPOS>ATOM
      1 N         140.0052  138.7891  161.7458 N.3     1  UNL1       -0.2695
      2 C         140.1063  138.2751  163.1514 C.3     1  UNL1        0.0939
      3 C         141.3888  138.4263  163.9147 C.3     1  UNL1        0.1107
      4 N         142.5700  139.0914  163.2725 N.am    1  UNL1       -0.2764
      5 C         143.8523  139.2425  164.0359 C.2     1  UNL1        0.2301
      6 O         145.0335  139.9076  163.3938 O.2     1  UNL1       -0.2745
      7 C         142.4687  139.6054  161.8670 C.3     1  UNL1        0.1107
      8 C         141.1864  139.4542  161.1036 C.3     1  UNL1        0.0939
      9 C         138.7229  138.6380  160.9824 C.3     1  UNL1        0.0769
     10 C         137.7197  139.7531  160.9730 C.3     1  UNL1        0.0433
     11 C         138.6551  142.1546  161.3023 C.ar    1  UNL1       -0.0264
     12 C         137.9293  140.9578  161.8419 C.ar    1  UNL1       -0.0249
     13 C         137.4133  140.9657  163.2502 C.ar    1  UNL1       -0.0043
     14 C         137.6229  142.1704  164.1191 C.ar    1  UNL1        0.0059
     15 C         138.3485  143.3671  163.5795 C.ar    1  UNL1        0.0748
     16 C         138.8646  143.3593  162.1711 C.ar    1  UNL1        0.0233
     17 C         139.5377  144.6754  161.9167 C.3     1  UNL1        0.2352
     18 O         139.4375  145.4967  163.1679 O.3     1  UNL1       -0.4404
     19 C         138.7026  144.6882  164.1956 C.2     1  UNL1        0.3413
     20 O         138.3787  145.1241  165.5938 O.2     1  UNL1       -0.2449
     21 C         138.2683  142.5392  158.7621 C.3     1  UNL1        0.0050
     22 C         139.1711  142.1467  159.8938 C.3     1  UNL1        0.0258
     23 C         143.9534  138.7285  165.4415 C.3     1  UNL1        0.1116
     24 C         143.2532  139.4486  166.5555 C.ar    1  UNL1       -0.0130
     25 C         142.9935  138.7469  167.8556 C.ar    1  UNL1       -0.0022
     26 C         142.2932  139.4670  168.9698 C.ar    1  UNL1        0.0190
     27 C         141.8526  140.8887  168.7837 C.ar    1  UNL1        0.0862
     28 C         142.1123  141.5903  167.4836 C.ar    1  UNL1        0.0190
     29 C         142.8125  140.8703  166.3695 C.ar    1  UNL1       -0.0022
     30 N         141.1523  141.6088  169.8977 N.ar    1  UNL1       -0.1886
     31 C         140.2425  142.7920  169.7482 C.ar    1  UNL1        0.2258
     32 N         139.7669  143.1865  171.1150 N.ar    1  UNL1       -0.1045
     33 N         140.3827  142.2472  172.1093 N.ar    1  UNL1       -0.0222
     34 N         141.2389  141.2721  171.3569 N.ar    1  UNL1       -0.0385
@<TRIPOS>BOND
     1    21    22    1
     2    22    11    1
     3    11    12   ar
     4    12    10    1
     5    10     9    1
     6     9     1    1
     7     1     2    1
     8     2     3    1
     9     3     4    1
    10     4     5   am
    11     5     6    2
    12     5    23    1
    13    23    24    1
    14    24    25   ar
    15    25    26   ar
    16    26    27   ar
    17    27    30    1
    18    30    31   ar
    19    31    32   ar
    20    32    33   ar
    21    33    34   ar
    22    27    28   ar
    23    28    29   ar
    24     4     7    1
    25     7     8    1
    26    12    13   ar
    27    13    14   ar
    28    14    15   ar
    29    15    16   ar
    30    16    17    1
    31    17    18    1
    32    18    19    1
    33    19    20    2
    34    16    11   ar
    35     8     1    1
    36    19    15    1
    37    29    24   ar
    38    34    30   ar
@<TRIPOS>MOLECULE
*****
 34 38 0 0 0
SMALL
GASTEIGER

@<TRIPOS>ATOM
      1 N         141.8452  138.9287  159.8545 N.3     1  UNL1       -0.2695
      2 C         142.1123  138.1952  161.1354 C.3     1  UNL1        0.0939
      3 C         143.1243  138.7266  162.1069 C.3     1  UNL1        0.1107
      4 N         143.8689  139.9914  161.7975 N.am    1  UNL1       -0.2764
      5 C         144.8808  140.5227  162.7691 C.2     1  UNL1        0.2301
      6 O         145.6255  141.7875  162.4597 O.2     1  UNL1       -0.2745
      7 C         143.6017  140.7249  160.5166 C.3     1  UNL1        0.1107
      8 C         142.5899  140.1935  159.5452 C.3     1  UNL1        0.0939
      9 C         140.8333  138.3974  158.8830 C.3     1  UNL1        0.0769
     10 C         139.3924  138.7950  159.0083 C.3     1  UNL1        0.0433
     11 C         138.4096  139.7669  161.2083 C.ar    1  UNL1       -0.0264
     12 C         139.0109  139.9766  159.8501 C.ar    1  UNL1       -0.0249
     13 C         139.2306  141.3675  159.3337 C.ar    1  UNL1       -0.0043
     14 C         138.8490  142.5490  160.1754 C.ar    1  UNL1        0.0059
     15 C         138.2478  142.3395  161.5336 C.ar    1  UNL1        0.0748
     16 C         138.0280  140.9484  162.0500 C.ar    1  UNL1        0.0233
     17 C         137.4205  141.0522  163.4175 C.3     1  UNL1        0.2352
     18 O         137.2647  142.5074  163.7463 O.3     1  UNL1       -0.4404
     19 C         137.7760  143.3030  162.5819 C.2     1  UNL1        0.3413
     20 O         137.8096  144.7994  162.4833 O.2     1  UNL1       -0.2449
     21 C         139.0576  137.8381  162.8237 C.3     1  UNL1        0.0050
     22 C         138.1899  138.3758  161.7247 C.3     1  UNL1        0.0258
     23 C         145.1479  139.7892  164.0499 C.3     1  UNL1        0.1116
     24 C         144.1307  139.8097  165.1520 C.ar    1  UNL1       -0.0130
     25 C         143.3151  141.0446  165.3969 C.ar    1  UNL1       -0.0022
     26 C         142.2977  141.0651  166.4991 C.ar    1  UNL1        0.0190
     27 C         142.0960  139.8509  167.3563 C.ar    1  UNL1        0.0862
     28 C         142.9117  138.6160  167.1114 C.ar    1  UNL1        0.0190
     29 C         143.9290  138.5954  166.0093 C.ar    1  UNL1       -0.0022
     30 N         141.0787  139.8713  168.4584 N.ar    1  UNL1       -0.1886
     31 C         139.6280  140.2236  168.3128 C.ar    1  UNL1        0.2258
     32 N         138.9863  140.1131  169.6641 N.ar    1  UNL1       -0.1045
     33 N         140.0405  139.6926  170.6449 N.ar    1  UNL1       -0.0222
     34 N         141.3337  139.5432  169.8997 N.ar    1  UNL1       -0.0385
@<TRIPOS>BOND
     1    21    22    1
     2    22    11    1
     3    11    12   ar
     4    12    10    1
     5    10     9    1
     6     9     1    1
     7     1     2    1
     8     2     3    1
     9     3     4    1
    10     4     5   am
    11     5     6    2
    12     5    23    1
    13    23    24    1
    14    24    25   ar
    15    25    26   ar
    16    26    27   ar
    17    27    30    1
    18    30    31   ar
    19    31    32   ar
    20    32    33   ar
    21    33    34   ar
    22    27    28   ar
    23    28    29   ar
    24     4     7    1
    25     7     8    1
    26    12    13   ar
    27    13    14   ar
    28    14    15   ar
    29    15    16   ar
    30    16    17    1
    31    17    18    1
    32    18    19    1
    33    19    20    2
    34    16    11   ar
    35     8     1    1
    36    19    15    1
    37    29    24   ar
    38    34    30   ar
@<TRIPOS>MOLECULE
*****
 34 38 0 0 0
SMALL
GASTEIGER

@<TRIPOS>ATOM
      1 N         138.2537  140.7646  161.5487 N.3     1  UNL1       -0.2695
      2 C         137.9140  141.4006  162.8640 C.3     1  UNL1        0.0939
      3 C         138.0109  140.6023  164.1303 C.3     1  UNL1        0.1107
      4 N         138.4476  139.1681  164.0812 N.am    1  UNL1       -0.2764
      5 C         138.5445  138.3699  165.3475 C.2     1  UNL1        0.2301
      6 O         138.9811  136.9357  165.2984 O.2     1  UNL1       -0.2745
      7 C         138.7873  138.5322  162.7658 C.3     1  UNL1        0.1107
      8 C         138.6904  139.3304  161.4996 C.3     1  UNL1        0.0939
      9 C         138.1568  141.5628  160.2824 C.3     1  UNL1        0.0769
     10 C         139.1374  142.6658  160.0142 C.3     1  UNL1        0.0433
     11 C         140.8581  143.5713  161.7375 C.ar    1  UNL1       -0.0264
     12 C         140.5036  142.6214  160.6320 C.ar    1  UNL1       -0.0249
     13 C         141.5153  141.6272  160.1443 C.ar    1  UNL1       -0.0043
     14 C         142.8814  141.5828  160.7620 C.ar    1  UNL1        0.0059
     15 C         143.2359  142.5326  161.8675 C.ar    1  UNL1        0.0748
     16 C         142.2242  143.5269  162.3552 C.ar    1  UNL1        0.0233
     17 C         142.8563  144.3314  163.4521 C.3     1  UNL1        0.2352
     18 O         144.2587  143.8343  163.6423 O.3     1  UNL1       -0.4404
     19 C         144.4933  142.7226  162.6630 C.2     1  UNL1        0.3413
     20 O         145.7625  141.9386  162.5066 O.2     1  UNL1       -0.2449
     21 C         139.9505  146.0045  161.8145 C.3     1  UNL1        0.0050
     22 C         139.8463  144.5656  162.2252 C.3     1  UNL1        0.0258
     23 C         138.2047  139.0059  166.6628 C.3     1  UNL1        0.1116
     24 C         139.2294  139.8304  167.3840 C.ar    1  UNL1       -0.0130
     25 C         140.4430  140.3248  166.6542 C.ar    1  UNL1       -0.0022
     26 C         141.4678  141.1494  167.3753 C.ar    1  UNL1        0.0190
     27 C         141.2789  141.4796  168.8263 C.ar    1  UNL1        0.0862
     28 C         140.0652  140.9851  169.5561 C.ar    1  UNL1        0.0190
     29 C         139.0405  140.1605  168.8350 C.ar    1  UNL1       -0.0022
     30 N         142.3036  142.3041  169.5475 N.ar    1  UNL1       -0.1886
     31 C         143.7905  142.2133  169.3725 C.ar    1  UNL1        0.2258
     32 N         144.4270  143.2173  170.2872 N.ar    1  UNL1       -0.1045
     33 N         143.3335  143.9287  171.0276 N.ar    1  UNL1       -0.0222
     34 N         142.0211  143.3643  170.5703 N.ar    1  UNL1       -0.0385
@<TRIPOS>BOND
     1    21    22    1
     2    22    11    1
     3    11    12   ar
     4    12    10    1
     5    10     9    1
     6     9     1    1
     7     1     2    1
     8     2     3    1
     9     3     4    1
    10     4     5   am
    11     5     6    2
    12     5    23    1
    13    23    24    1
    14    24    25   ar
    15    25    26   ar
    16    26    27   ar
    17    27    30    1
    18    30    31   ar
    19    31    32   ar
    20    32    33   ar
    21    33    34   ar
    22    27    28   ar
    23    28    29   ar
    24     4     7    1
    25     7     8    1
    26    12    13   ar
    27    13    14   ar
    28    14    15   ar
    29    15    16   ar
    30    16    17    1
    31    17    18    1
    32    18    19    1
    33    19    20    2
    34    16    11   ar
    35     8     1    1
    36    19    15    1
    37    29    24   ar
    38    34    30   ar
@<TRIPOS>MOLECULE
*****
 34 38 0 0 0
SMALL
GASTEIGER

@<TRIPOS>ATOM
      1 N         143.7571  140.7349  161.0472 N.3     1  UNL1       -0.2695
      2 C         144.2758  140.8147  162.4524 C.3     1  UNL1        0.0939
      3 C         143.7330  139.8948  163.5056 C.3     1  UNL1        0.1107
      4 N         142.6716  138.8950  163.1536 N.am    1  UNL1       -0.2764
      5 C         142.1289  137.9752  164.2069 C.2     1  UNL1        0.2301
      6 O         141.0675  136.9755  163.8549 O.2     1  UNL1       -0.2745
      7 C         142.1529  138.8153  161.7484 C.3     1  UNL1        0.1107
      8 C         142.6956  139.7352  160.6952 C.3     1  UNL1        0.0939
      9 C         144.2998  141.6547  159.9940 C.3     1  UNL1        0.0769
     10 C         143.6639  142.9944  159.7683 C.3     1  UNL1        0.0433
     11 C         142.4927  144.0565  161.8300 C.ar    1  UNL1       -0.0264
     12 C         142.4088  143.3623  160.5029 C.ar    1  UNL1       -0.0249
     13 C         141.0701  143.0360  159.9104 C.ar    1  UNL1       -0.0043
     14 C         139.8150  143.4038  160.6450 C.ar    1  UNL1        0.0059
     15 C         139.8988  144.0980  161.9720 C.ar    1  UNL1        0.0748
     16 C         141.2377  144.4244  162.5645 C.ar    1  UNL1        0.0233
     17 C         141.0083  145.1084  163.8796 C.3     1  UNL1        0.2352
     18 O         139.5277  145.2047  164.0999 O.3     1  UNL1       -0.4404
     19 C         138.8420  144.5803  162.9210 C.2     1  UNL1        0.3413
     20 O         137.3597  144.4594  162.7254 O.2     1  UNL1       -0.2449
     21 C         144.2224  143.8111  163.7529 C.3     1  UNL1        0.0050
     22 C         143.8316  144.3829  162.4224 C.3     1  UNL1        0.0258
     23 C         142.6476  138.0550  165.6120 C.3     1  UNL1        0.1116
     24 C         142.0821  139.0670  166.5638 C.ar    1  UNL1       -0.0130
     25 C         142.7400  139.2970  167.8921 C.ar    1  UNL1       -0.0022
     26 C         142.1745  140.3091  168.8440 C.ar    1  UNL1        0.0190
     27 C         140.9510  141.0911  168.4676 C.ar    1  UNL1        0.0862
     28 C         140.2931  140.8610  167.1393 C.ar    1  UNL1        0.0190
     29 C         140.8586  139.8490  166.1874 C.ar    1  UNL1       -0.0022
     30 N         140.3855  142.1031  169.4194 N.ar    1  UNL1       -0.1886
     31 C         140.5869  143.5879  169.3499 C.ar    1  UNL1        0.2258
     32 N         139.8450  144.2103  170.4953 N.ar    1  UNL1       -0.1045
     33 N         139.1851  143.1103  171.2729 N.ar    1  UNL1       -0.0222
     34 N         139.5192  141.8079  170.6078 N.ar    1  UNL1       -0.0385
@<TRIPOS>BOND
     1    21    22    1
     2    22    11    1
     3    11    12   ar
     4    12    10    1
     5    10     9    1
     6     9     1    1
     7     1     2    1
     8     2     3    1
     9     3     4    1
    10     4     5   am
    11     5     6    2
    12     5    23    1
    13    23    24    1
    14    24    25   ar
    15    25    26   ar
    16    26    27   ar
    17    27    30    1
    18    30    31   ar
    19    31    32   ar
    20    32    33   ar
    21    33    34   ar
    22    27    28   ar
    23    28    29   ar
    24     4     7    1
    25     7     8    1
    26    12    13   ar
    27    13    14   ar
    28    14    15   ar
    29    15    16   ar
    30    16    17    1
    31    17    18    1
    32    18    19    1
    33    19    20    2
    34    16    11   ar
    35     8     1    1
    36    19    15    1
    37    29    24   ar
    38    34    30   ar
@<TRIPOS>MOLECULE
*****
 34 38 0 0 0
SMALL
GASTEIGER

@<TRIPOS>ATOM
      1 N         141.7917  139.0051  160.6103 N.3     1  UNL1       -0.2695
      2 C         141.2507  138.4380  161.8893 C.3     1  UNL1        0.0939
      3 C         142.0445  138.5552  163.1567 C.3     1  UNL1        0.1107
      4 N         143.3793  139.2395  163.1451 N.am    1  UNL1       -0.2764
      5 C         144.1730  139.3567  164.4125 C.2     1  UNL1        0.2301
      6 O         145.5077  140.0410  164.4009 O.2     1  UNL1       -0.2745
      7 C         143.9202  139.8066  161.8661 C.3     1  UNL1        0.1107
      8 C         143.1265  139.6894  160.5988 C.3     1  UNL1        0.0939
      9 C         140.9980  138.8879  159.3430 C.3     1  UNL1        0.0769
     10 C         139.8295  139.7973  159.1030 C.3     1  UNL1        0.0433
     11 C         138.7434  141.4510  160.7871 C.ar    1  UNL1       -0.0264
     12 C         139.7858  141.1493  159.7515 C.ar    1  UNL1       -0.0249
     13 C         140.7843  142.1994  159.3643 C.ar    1  UNL1       -0.0043
     14 C         140.7406  143.5513  160.0127 C.ar    1  UNL1        0.0059
     15 C         139.6982  143.8531  161.0483 C.ar    1  UNL1        0.0748
     16 C         138.6996  142.8029  161.4355 C.ar    1  UNL1        0.0233
     17 C         137.7947  143.3863  162.4798 C.3     1  UNL1        0.2352
     18 O         138.2340  144.7971  162.7381 O.3     1  UNL1       -0.4404
     19 C         139.4104  145.0856  161.8534 C.2     1  UNL1        0.3413
     20 O         140.1664  146.3794  161.7856 O.2     1  UNL1       -0.2449
     21 C         137.9602  139.5810  162.4119 C.3     1  UNL1        0.0050
     22 C         137.7448  140.4007  161.1742 C.3     1  UNL1        0.0258
     23 C         143.6320  138.7896  165.6914 C.3     1  UNL1        0.1116
     24 C         142.8760  139.6702  166.6416 C.ar    1  UNL1       -0.0130
     25 C         142.4080  141.0245  166.1980 C.ar    1  UNL1       -0.0022
     26 C         141.6519  141.9053  167.1482 C.ar    1  UNL1        0.0190
     27 C         141.3640  141.4317  168.5420 C.ar    1  UNL1        0.0862
     28 C         141.8321  140.0773  168.9856 C.ar    1  UNL1        0.0190
     29 C         142.5880  139.1966  168.0355 C.ar    1  UNL1       -0.0022
     30 N         140.6080  142.3123  169.4923 N.ar    1  UNL1       -0.1886
     31 C         140.6671  143.8103  169.5428 C.ar    1  UNL1        0.2258
     32 N         139.7558  144.2733  170.6406 N.ar    1  UNL1       -0.1045
     33 N         139.1335  143.0614  171.2686 N.ar    1  UNL1       -0.0222
     34 N         139.6602  141.8495  170.5588 N.ar    1  UNL1       -0.0385
@<TRIPOS>BOND
     1    21    22    1
     2    22    11    1
     3    11    12   ar
     4    12    10    1
     5    10     9    1
     6     9     1    1
     7     1     2    1
     8     2     3    1
     9     3     4    1
    10     4     5   am
    11     5     6    2
    12     5    23    1
    13    23    24    1
    14    24    25   ar
    15    25    26   ar
    16    26    27   ar
    17    27    30    1
    18    30    31   ar
    19    31    32   ar
    20    32    33   ar
    21    33    34   ar
    22    27    28   ar
    23    28    29   ar
    24     4     7    1
    25     7     8    1
    26    12    13   ar
    27    13    14   ar
    28    14    15   ar
    29    15    16   ar
    30    16    17    1
    31    17    18    1
    32    18    19    1
    33    19    20    2
    34    16    11   ar
    35     8     1    1
    36    19    15    1
    37    29    24   ar
    38    34    30   ar
@<TRIPOS>MOLECULE
*****
 34 38 0 0 0
SMALL
GASTEIGER

@<TRIPOS>ATOM
      1 N         139.6735  142.1526  161.0510 N.3     1  UNL1       -0.2695
      2 C         138.8134  142.0580  162.2763 C.3     1  UNL1        0.0939
      3 C         138.7417  140.7717  163.0447 C.3     1  UNL1        0.1107
      4 N         139.5300  139.5801  162.5878 N.am    1  UNL1       -0.2764
      5 C         139.4582  138.2939  163.3563 C.2     1  UNL1        0.2301
      6 O         140.2465  137.1023  162.8994 O.2     1  UNL1       -0.2745
      7 C         140.3900  139.6748  161.3625 C.3     1  UNL1        0.1107
      8 C         140.4617  140.9610  160.5941 C.3     1  UNL1        0.0939
      9 C         139.7452  143.4388  160.2825 C.3     1  UNL1        0.0769
     10 C         140.9523  144.3206  160.4072 C.3     1  UNL1        0.0433
     11 C         143.0443  143.1983  161.4627 C.ar    1  UNL1       -0.0264
     12 C         141.8893  144.1499  161.5661 C.ar    1  UNL1       -0.0249
     13 C         141.6715  144.9307  162.8281 C.ar    1  UNL1       -0.0043
     14 C         142.6085  144.7600  163.9869 C.ar    1  UNL1        0.0059
     15 C         143.7634  143.8085  163.8836 C.ar    1  UNL1        0.0748
     16 C         143.9813  143.0276  162.6215 C.ar    1  UNL1        0.0233
     17 C         145.1974  142.1701  162.8111 C.3     1  UNL1        0.2352
     18 O         145.7310  142.4210  164.1903 O.3     1  UNL1       -0.4404
     19 C         144.8448  143.4335  164.8532 C.2     1  UNL1        0.3413
     20 O         145.0108  143.9759  166.2418 O.2     1  UNL1       -0.2449
     21 C         144.4350  142.7291  159.3189 C.3     1  UNL1        0.0050
     22 C         143.2622  142.4175  160.2006 C.3     1  UNL1        0.0258
     23 C         138.5982  138.1993  164.5816 C.3     1  UNL1        0.1116
     24 C         139.0467  138.8359  165.8636 C.ar    1  UNL1       -0.0130
     25 C         140.4490  139.3522  165.9940 C.ar    1  UNL1       -0.0022
     26 C         140.8976  139.9889  167.2761 C.ar    1  UNL1        0.0190
     27 C         139.9439  140.1092  168.4276 C.ar    1  UNL1        0.0862
     28 C         138.5416  139.5929  168.2970 C.ar    1  UNL1        0.0190
     29 C         138.0930  138.9563  167.0151 C.ar    1  UNL1       -0.0022
     30 N         140.3924  140.7459  169.7095 N.ar    1  UNL1       -0.1886
     31 C         141.7178  140.5383  170.3805 C.ar    1  UNL1        0.2258
     32 N         141.7388  141.3660  171.6313 N.ar    1  UNL1       -0.1045
     33 N         140.4263  142.0851  171.7334 N.ar    1  UNL1       -0.0222
     34 N         139.5942  141.7018  170.5456 N.ar    1  UNL1       -0.0385
@<TRIPOS>BOND
     1    21    22    1
     2    22    11    1
     3    11    12   ar
     4    12    10    1
     5    10     9    1
     6     9     1    1
     7     1     2    1
     8     2     3    1
     9     3     4    1
    10     4     5   am
    11     5     6    2
    12     5    23    1
    13    23    24    1
    14    24    25   ar
    15    25    26   ar
    16    26    27   ar
    17    27    30    1
    18    30    31   ar
    19    31    32   ar
    20    32    33   ar
    21    33    34   ar
    22    27    28   ar
    23    28    29   ar
    24     4     7    1
    25     7     8    1
    26    12    13   ar
    27    13    14   ar
    28    14    15   ar
    29    15    16   ar
    30    16    17    1
    31    17    18    1
    32    18    19    1
    33    19    20    2
    34    16    11   ar
    35     8     1    1
    36    19    15    1
    37    29    24   ar
    38    34    30   ar
@<TRIPOS>MOLECULE
*****
 34 38 0 0 0
SMALL
GASTEIGER

@<TRIPOS>ATOM
      1 N         142.3345  142.2273  159.8367 N.3     1  UNL1       -0.2695
      2 C         141.9460  140.9949  160.5985 C.3     1  UNL1        0.0939
      3 C         142.7872  140.5285  161.7496 C.3     1  UNL1        0.1107
      4 N         144.0168  141.2943  162.1388 N.am    1  UNL1       -0.2764
      5 C         144.8579  140.8278  163.2899 C.2     1  UNL1        0.2301
      6 O         146.0875  141.5937  163.6791 O.2     1  UNL1       -0.2745
      7 C         144.4053  142.5267  161.3769 C.3     1  UNL1        0.1107
      8 C         143.5641  142.9931  160.2259 C.3     1  UNL1        0.0939
      9 C         141.4934  142.6938  158.6856 C.3     1  UNL1        0.0769
     10 C         140.2562  143.5029  158.9402 C.3     1  UNL1        0.0433
     11 C         138.8308  142.8493  161.0118 C.ar    1  UNL1       -0.0264
     12 C         139.8112  143.7701  160.3476 C.ar    1  UNL1       -0.0249
     13 C         140.3465  144.9580  161.0907 C.ar    1  UNL1       -0.0043
     14 C         139.9016  145.2252  162.4980 C.ar    1  UNL1        0.0059
     15 C         138.9212  144.3045  163.1622 C.ar    1  UNL1        0.0748
     16 C         138.3859  143.1166  162.4191 C.ar    1  UNL1        0.0233
     17 C         137.4378  142.3906  163.3270 C.3     1  UNL1        0.2352
     18 O         137.3872  143.1299  164.6311 O.3     1  UNL1       -0.4404
     19 C         138.3040  144.3128  164.5293 C.2     1  UNL1        0.3413
     20 O         138.5589  145.3260  165.6057 O.2     1  UNL1       -0.2449
     21 C         138.4121  140.2895  160.8639 C.3     1  UNL1        0.0050
     22 C         138.2955  141.6614  160.2687 C.3     1  UNL1        0.0258
     23 C         144.4694  139.5955  164.0517 C.3     1  UNL1        0.1116
     24 C         143.6035  139.7095  165.2711 C.ar    1  UNL1       -0.0130
     25 C         142.6471  140.8571  165.4071 C.ar    1  UNL1       -0.0022
     26 C         141.7811  140.9712  166.6267 C.ar    1  UNL1        0.0190
     27 C         141.8715  139.9378  167.7101 C.ar    1  UNL1        0.0862
     28 C         142.8279  138.7903  167.5740 C.ar    1  UNL1        0.0190
     29 C         143.6939  138.6761  166.3546 C.ar    1  UNL1       -0.0022
     30 N         141.0056  140.0519  168.9296 N.ar    1  UNL1       -0.1886
     31 C         141.4645  140.4414  170.3035 C.ar    1  UNL1        0.2258
     32 N         140.2712  140.4267  171.2123 N.ar    1  UNL1       -0.1045
     33 N         139.0747  140.0281  170.4000 N.ar    1  UNL1       -0.0222
     34 N         139.5287  139.7965  168.9892 N.ar    1  UNL1       -0.0385
@<TRIPOS>BOND
     1    21    22    1
     2    22    11    1
     3    11    12   ar
     4    12    10    1
     5    10     9    1
     6     9     1    1
     7     1     2    1
     8     2     3    1
     9     3     4    1
    10     4     5   am
    11     5     6    2
    12     5    23    1
    13    23    24    1
    14    24    25   ar
    15    25    26   ar
    16    26    27   ar
    17    27    30    1
    18    30    31   ar
    19    31    32   ar
    20    32    33   ar
    21    33    34   ar
    22    27    28   ar
    23    28    29   ar
    24     4     7    1
    25     7     8    1
    26    12    13   ar
    27    13    14   ar
    28    14    15   ar
    29    15    16   ar
    30    16    17    1
    31    17    18    1
    32    18    19    1
    33    19    20    2
    34    16    11   ar
    35     8     1    1
    36    19    15    1
    37    29    24   ar
    38    34    30   ar
@<TRIPOS>MOLECULE
*****
 34 38 0 0 0
SMALL
GASTEIGER

@<TRIPOS>ATOM
      1 N         138.2963  141.2839  160.7982 N.3     1  UNL1       -0.2695
      2 C         137.8537  141.8553  162.1125 C.3     1  UNL1        0.0939
      3 C         137.9837  141.0416  163.3660 C.3     1  UNL1        0.1107
      4 N         138.5563  139.6565  163.3051 N.am    1  UNL1       -0.2764
      5 C         138.6862  138.8429  164.5585 C.2     1  UNL1        0.2301
      6 O         139.2587  137.4578  164.4976 O.2     1  UNL1       -0.2745
      7 C         138.9989  139.0851  161.9906 C.3     1  UNL1        0.1107
      8 C         138.8689  139.8988  160.7373 C.3     1  UNL1        0.0939
      9 C         138.1664  142.0975  159.5447 C.3     1  UNL1        0.0769
     10 C         139.3043  142.9632  159.0912 C.3     1  UNL1        0.0433
     11 C         141.7183  142.7737  160.0331 C.ar    1  UNL1       -0.0264
     12 C         140.3541  143.3963  160.0713 C.ar    1  UNL1       -0.0249
     13 C         140.0398  144.4520  161.0894 C.ar    1  UNL1       -0.0043
     14 C         141.0895  144.8851  162.0694 C.ar    1  UNL1        0.0059
     15 C         142.4536  144.2625  162.0313 C.ar    1  UNL1        0.0748
     16 C         142.7681  143.2068  161.0131 C.ar    1  UNL1        0.0233
     17 C         144.1907  142.7765  161.2156 C.3     1  UNL1        0.2352
     18 O         144.7555  143.5663  162.3590 O.3     1  UNL1       -0.4404
     19 C         143.6820  144.4847  162.8631 C.2     1  UNL1        0.3413
     20 O         143.8136  145.4549  163.9994 O.2     1  UNL1       -0.2449
     21 C         142.3117  140.3113  159.4547 C.3     1  UNL1        0.0050
     22 C         142.0327  141.7180  159.0149 C.3     1  UNL1        0.0258
     23 C         138.2436  139.4144  165.8729 C.3     1  UNL1        0.1116
     24 C         139.2213  140.1557  166.7356 C.ar    1  UNL1       -0.0130
     25 C         139.2357  139.9285  168.2183 C.ar    1  UNL1       -0.0022
     26 C         140.2135  140.6699  169.0811 C.ar    1  UNL1        0.0190
     27 C         141.1768  141.6384  168.4614 C.ar    1  UNL1        0.0862
     28 C         141.1623  141.8655  166.9787 C.ar    1  UNL1        0.0190
     29 C         140.1846  141.1242  166.1158 C.ar    1  UNL1       -0.0022
     30 N         142.1545  142.3797  169.3241 N.ar    1  UNL1       -0.1886
     31 C         143.6479  142.2452  169.2802 C.ar    1  UNL1        0.2258
     32 N         144.2268  143.1681  170.3113 N.ar    1  UNL1       -0.1045
     33 N         143.0913  143.8730  170.9924 N.ar    1  UNL1       -0.0222
     34 N         141.8106  143.3857  170.3822 N.ar    1  UNL1       -0.0385
@<TRIPOS>BOND
     1    21    22    1
     2    22    11    1
     3    11    12   ar
     4    12    10    1
     5    10     9    1
     6     9     1    1
     7     1     2    1
     8     2     3    1
     9     3     4    1
    10     4     5   am
    11     5     6    2
    12     5    23    1
    13    23    24    1
    14    24    25   ar
    15    25    26   ar
    16    26    27   ar
    17    27    30    1
    18    30    31   ar
    19    31    32   ar
    20    32    33   ar
    21    33    34   ar
    22    27    28   ar
    23    28    29   ar
    24     4     7    1
    25     7     8    1
    26    12    13   ar
    27    13    14   ar
    28    14    15   ar
    29    15    16   ar
    30    16    17    1
    31    17    18    1
    32    18    19    1
    33    19    20    2
    34    16    11   ar
    35     8     1    1
    36    19    15    1
    37    29    24   ar
    38    34    30   ar
@<TRIPOS>MOLECULE
*****
 34 38 0 0 0
SMALL
GASTEIGER

@<TRIPOS>ATOM
      1 N         140.2110  139.3776  159.8551 N.3     1  UNL1       -0.2695
      2 C         140.4287  138.7134  161.1823 C.3     1  UNL1        0.0939
      3 C         139.5991  139.1138  162.3663 C.3     1  UNL1        0.1107
      4 N         138.5519  140.1782  162.2229 N.am    1  UNL1       -0.2764
      5 C         137.7224  140.5785  163.4069 C.2     1  UNL1        0.2301
      6 O         136.6753  141.6429  163.2636 O.2     1  UNL1       -0.2745
      7 C         138.3343  140.8423  160.8956 C.3     1  UNL1        0.1107
      8 C         139.1638  140.4419  159.7118 C.3     1  UNL1        0.0939
      9 C         141.0405  138.9773  158.6711 C.3     1  UNL1        0.0769
     10 C         142.3860  139.6030  158.4521 C.3     1  UNL1        0.0433
     11 C         143.7675  140.2673  160.5499 C.ar    1  UNL1       -0.0264
     12 C         142.8876  140.6537  159.3980 C.ar    1  UNL1       -0.0249
     13 C         142.5093  142.0904  159.1921 C.ar    1  UNL1       -0.0043
     14 C         143.0108  143.1410  160.1380 C.ar    1  UNL1        0.0059
     15 C         143.8906  142.7548  161.2898 C.ar    1  UNL1        0.0748
     16 C         144.2690  141.3179  161.4958 C.ar    1  UNL1        0.0233
     17 C         145.1444  141.2387  162.7112 C.3     1  UNL1        0.2352
     18 O         145.3071  142.6266  163.2565 O.3     1  UNL1       -0.4404
     19 C         144.5322  143.5636  162.3781 C.2     1  UNL1        0.3413
     20 O         144.4189  145.0486  162.5565 O.2     1  UNL1       -0.2449
     21 C         143.7051  138.1091  161.9949 C.3     1  UNL1        0.0050
     22 C         144.1457  138.8305  160.7558 C.3     1  UNL1        0.0258
     23 C         137.9401  139.9144  164.7341 C.3     1  UNL1        0.1116
     24 C         138.8789  140.5239  165.7327 C.ar    1  UNL1       -0.0130
     25 C         139.4641  141.8817  165.4802 C.ar    1  UNL1       -0.0022
     26 C         140.4030  142.4913  166.4787 C.ar    1  UNL1        0.0190
     27 C         140.7566  141.7431  167.7297 C.ar    1  UNL1        0.0862
     28 C         140.1714  140.3851  167.9821 C.ar    1  UNL1        0.0190
     29 C         139.2326  139.7756  166.9836 C.ar    1  UNL1       -0.0022
     30 N         141.6955  142.3526  168.7282 N.ar    1  UNL1       -0.1886
     31 C         143.1704  142.0963  168.8224 C.ar    1  UNL1        0.2258
     32 N         143.7106  142.9107  169.9603 N.ar    1  UNL1       -0.1045
     33 N         142.5695  143.6704  170.5694 N.ar    1  UNL1       -0.0222
     34 N         141.3241  143.3253  169.8079 N.ar    1  UNL1       -0.0385
@<TRIPOS>BOND
     1    21    22    1
     2    22    11    1
     3    11    12   ar
     4    12    10    1
     5    10     9    1
     6     9     1    1
     7     1     2    1
     8     2     3    1
     9     3     4    1
    10     4     5   am
    11     5     6    2
    12     5    23    1
    13    23    24    1
    14    24    25   ar
    15    25    26   ar
    16    26    27   ar
    17    27    30    1
    18    30    31   ar
    19    31    32   ar
    20    32    33   ar
    21    33    34   ar
    22    27    28   ar
    23    28    29   ar
    24     4     7    1
    25     7     8    1
    26    12    13   ar
    27    13    14   ar
    28    14    15   ar
    29    15    16   ar
    30    16    17    1
    31    17    18    1
    32    18    19    1
    33    19    20    2
    34    16    11   ar
    35     8     1    1
    36    19    15    1
    37    29    24   ar
    38    34    30   ar
