@<TRIPOS>MOLECULE
*****
 30 32 0 0 0
SMALL
GASTEIGER

@<TRIPOS>ATOM
      1 C         140.8712  138.3778  162.8927 C.ar    1  UNL1        0.2209
      2 N         141.4559  137.4693  161.8521 N.ar    1  UNL1       -0.2096
      3 C         142.3652  138.0253  160.7965 C.ar    1  UNL1        0.1330
      4 C         142.6897  139.4897  160.7816 C.ar    1  UNL1        0.1783
      5 F         143.5990  140.0456  159.7260 F       1  UNL1       -0.2009
      6 C         142.1050  140.3981  161.8221 C.ar    1  UNL1        0.1303
      7 N         141.1957  139.8422  162.8777 N.ar    1  UNL1       -0.2097
      8 C         142.4295  141.8625  161.8072 C.ar    1  UNL1        0.1003
      9 C         142.0462  142.8397  160.7356 C.ar    1  UNL1        0.1189
     10 N         142.5741  144.1879  161.1273 N.ar    1  UNL1       -0.2293
     11 C         143.2838  144.0441  162.4410 C.ar    1  UNL1        0.1208
     12 C         143.9635  145.1442  163.2010 C.3     1  UNL1        0.0718
     13 N         143.1944  142.6069  162.8611 N.ar    1  UNL1       -0.3155
     14 C         143.7691  142.0176  164.1151 C.3     1  UNL1        0.0868
     15 C         143.0924  142.2526  165.4330 C.3     1  UNL1        0.0245
     16 C         145.0207  141.1931  164.0512 C.3     1  UNL1        0.0245
     17 N         139.9620  137.8218  163.9482 N.pl3   1  UNL1       -0.2825
     18 H         139.4434  137.0041  163.7704 H       1  UNL1        0.1551
     19 C         139.6043  139.8917  167.9279 C.ar    1  UNL1        0.0808
     20 C         138.3811  139.3426  167.2555 C.ar    1  UNL1        0.0080
     21 C         138.5003  138.6526  165.9290 C.ar    1  UNL1        0.0150
     22 C         139.8428  138.5118  165.2748 C.ar    1  UNL1        0.0527
     23 C         141.0660  139.0610  165.9471 C.ar    1  UNL1        0.0444
     24 C         140.9468  139.7509  167.2737 C.ar    1  UNL1        0.1457
     25 F         142.1701  140.3001  167.9460 F       1  UNL1       -0.2040
     26 C         139.8839  142.6693  170.7486 C.3     1  UNL1        0.1109
     27 N         140.0031  141.9794  169.4221 N.am    1  UNL1       -0.2991
     28 C         139.4851  140.5817  169.2544 C.2     1  UNL1        0.2481
     29 O         138.8479  139.8740  170.4133 O.2     1  UNL1       -0.2701
     30 H         140.4214  142.4439  168.6615 H       1  UNL1        0.1498
@<TRIPOS>BOND
     1    26    27    1
     2    27    28   am
     3    28    29    2
     4    28    19    1
     5    19    20   ar
     6    20    21   ar
     7    21    22   ar
     8    22    17    1
     9    17     1    1
    10     1     2   ar
    11     2     3   ar
    12     3     4   ar
    13     4     5    1
    14     4     6   ar
    15     6     8    1
    16     8     9   ar
    17     9    10   ar
    18    10    11   ar
    19    11    12    1
    20    11    13   ar
    21    13    14    1
    22    14    15    1
    23    14    16    1
    24     6     7   ar
    25    22    23   ar
    26    23    24   ar
    27    24    25    1
    28    24    19   ar
    29     7     1   ar
    30    13     8   ar
    31    27    30    1
    32    17    18    1
@<TRIPOS>MOLECULE
*****
 30 32 0 0 0
SMALL
GASTEIGER

@<TRIPOS>ATOM
      1 C         139.8533  138.4293  163.2115 C.ar    1  UNL1        0.2209
      2 N         138.7073  137.6485  162.6396 N.ar    1  UNL1       -0.2096
      3 C         137.7574  138.3038  161.6814 C.ar    1  UNL1        0.1330
      4 C         137.9534  139.7399  161.2951 C.ar    1  UNL1        0.1783
      5 F         137.0034  140.3952  160.3368 F       1  UNL1       -0.2009
      6 C         139.0994  140.5207  161.8670 C.ar    1  UNL1        0.1303
      7 N         140.0494  139.8654  162.8252 N.ar    1  UNL1       -0.2097
      8 C         139.2954  141.9568  161.4806 C.ar    1  UNL1        0.1003
      9 C         139.4706  142.4784  160.0852 C.ar    1  UNL1        0.1189
     10 N         139.6342  143.9674  160.1641 N.ar    1  UNL1       -0.2293
     11 C         139.5601  144.3660  161.6082 C.ar    1  UNL1        0.1208
     12 C         139.6752  145.7621  162.1446 C.3     1  UNL1        0.0718
     13 N         139.3508  143.1234  162.4219 N.ar    1  UNL1       -0.3155
     14 C         139.2197  143.0587  163.9148 C.3     1  UNL1        0.0868
     15 C         140.4468  142.9611  164.7720 C.3     1  UNL1        0.0245
     16 C         137.8615  143.0917  164.5506 C.3     1  UNL1        0.0245
     17 N         140.8032  137.7740  164.1698 N.pl3   1  UNL1       -0.2825
     18 H         141.1247  136.8598  163.9964 H       1  UNL1        0.1551
     19 C         142.1835  139.9868  167.8370 C.ar    1  UNL1        0.0808
     20 C         143.1619  139.1819  167.0340 C.ar    1  UNL1        0.0080
     21 C         142.7018  138.4443  165.8116 C.ar    1  UNL1        0.0150
     22 C         141.2633  138.5116  165.3922 C.ar    1  UNL1        0.0527
     23 C         140.2848  139.3165  166.1951 C.ar    1  UNL1        0.0444
     24 C         140.7449  140.0541  167.4175 C.ar    1  UNL1        0.1457
     25 F         139.7663  140.8590  168.2204 F       1  UNL1       -0.2040
     26 C         142.9641  142.9537  170.3545 C.3     1  UNL1        0.1109
     27 N         142.5041  142.2161  169.1321 N.am    1  UNL1       -0.2991
     28 C         142.6435  140.7244  169.0594 C.2     1  UNL1        0.2481
     29 O         143.2431  139.9703  170.2091 O.2     1  UNL1       -0.2701
     30 H         142.1105  142.7111  168.3775 H       1  UNL1        0.1498
@<TRIPOS>BOND
     1    26    27    1
     2    27    28   am
     3    28    29    2
     4    28    19    1
     5    19    20   ar
     6    20    21   ar
     7    21    22   ar
     8    22    17    1
     9    17     1    1
    10     1     2   ar
    11     2     3   ar
    12     3     4   ar
    13     4     5    1
    14     4     6   ar
    15     6     8    1
    16     8     9   ar
    17     9    10   ar
    18    10    11   ar
    19    11    12    1
    20    11    13   ar
    21    13    14    1
    22    14    15    1
    23    14    16    1
    24     6     7   ar
    25    22    23   ar
    26    23    24   ar
    27    24    25    1
    28    24    19   ar
    29     7     1   ar
    30    13     8   ar
    31    27    30    1
    32    17    18    1
@<TRIPOS>MOLECULE
*****
 30 32 0 0 0
SMALL
GASTEIGER

@<TRIPOS>ATOM
      1 C         139.8527  138.4696  162.7936 C.ar    1  UNL1        0.2209
      2 N         140.5996  137.6822  161.7580 N.ar    1  UNL1       -0.2096
      3 C         141.1305  138.3671  160.5338 C.ar    1  UNL1        0.1330
      4 C         140.9146  139.8395  160.3450 C.ar    1  UNL1        0.1783
      5 F         141.4456  140.5244  159.1206 F       1  UNL1       -0.2009
      6 C         140.1678  140.6268  161.3805 C.ar    1  UNL1        0.1303
      7 N         139.6368  139.9419  162.6048 N.ar    1  UNL1       -0.2097
      8 C         139.9520  142.0992  161.1917 C.ar    1  UNL1        0.1003
      9 C         139.3838  142.7574  159.9694 C.ar    1  UNL1        0.1189
     10 N         139.3470  144.2368  160.2143 N.ar    1  UNL1       -0.2293
     11 C         139.8926  144.4930  161.5879 C.ar    1  UNL1        0.1208
     12 C         140.0386  145.8346  162.2426 C.3     1  UNL1        0.0718
     13 N         140.2664  143.1718  162.1919 N.ar    1  UNL1       -0.3155
     14 C         140.8519  142.9604  163.5567 C.3     1  UNL1        0.0868
     15 C         142.3338  142.7942  163.7197 C.3     1  UNL1        0.0245
     16 C         139.9556  142.9153  164.7586 C.3     1  UNL1        0.0245
     17 N         139.3217  137.7846  164.0179 N.pl3   1  UNL1       -0.2825
     18 H         138.9475  136.8765  163.9506 H       1  UNL1        0.1551
     19 C         139.4393  139.8805  167.9982 C.ar    1  UNL1        0.0808
     20 C         138.1707  139.2319  167.5293 C.ar    1  UNL1        0.0080
     21 C         138.1315  138.5333  166.2025 C.ar    1  UNL1        0.0150
     22 C         139.3609  138.4833  165.3447 C.ar    1  UNL1        0.0527
     23 C         140.6295  139.1319  165.8135 C.ar    1  UNL1        0.0444
     24 C         140.6687  139.8305  167.1403 C.ar    1  UNL1        0.1457
     25 F         141.9374  140.4792  167.6092 F       1  UNL1       -0.2040
     26 C         140.0214  142.6878  170.7424 C.3     1  UNL1        0.1109
     27 N         139.9822  141.9891  169.4156 N.am    1  UNL1       -0.2991
     28 C         139.4785  140.5792  169.3250 C.2     1  UNL1        0.2481
     29 O         139.0139  139.8679  170.5612 O.2     1  UNL1       -0.2701
     30 H         140.2872  142.4560  168.6043 H       1  UNL1        0.1498
@<TRIPOS>BOND
     1    26    27    1
     2    27    28   am
     3    28    29    2
     4    28    19    1
     5    19    20   ar
     6    20    21   ar
     7    21    22   ar
     8    22    17    1
     9    17     1    1
    10     1     2   ar
    11     2     3   ar
    12     3     4   ar
    13     4     5    1
    14     4     6   ar
    15     6     8    1
    16     8     9   ar
    17     9    10   ar
    18    10    11   ar
    19    11    12    1
    20    11    13   ar
    21    13    14    1
    22    14    15    1
    23    14    16    1
    24     6     7   ar
    25    22    23   ar
    26    23    24   ar
    27    24    25    1
    28    24    19   ar
    29     7     1   ar
    30    13     8   ar
    31    27    30    1
    32    17    18    1
@<TRIPOS>MOLECULE
*****
 30 32 0 0 0
SMALL
GASTEIGER

@<TRIPOS>ATOM
      1 C         138.0848  140.6598  163.2394 C.ar    1  UNL1        0.2209
      2 N         138.0987  139.3372  162.5317 N.ar    1  UNL1       -0.2096
      3 C         138.6774  138.1303  163.2088 C.ar    1  UNL1        0.1330
      4 C         139.2423  138.2459  164.5935 C.ar    1  UNL1        0.1783
      5 F         139.8210  137.0389  165.2706 F       1  UNL1       -0.2009
      6 C         139.2284  139.5684  165.3012 C.ar    1  UNL1        0.1303
      7 N         138.6497  140.7753  164.6242 N.ar    1  UNL1       -0.2097
      8 C         139.7933  139.6839  166.6860 C.ar    1  UNL1        0.1003
      9 C         139.0019  139.7466  167.9587 C.ar    1  UNL1        0.1189
     10 N         139.9683  139.8585  169.1004 N.ar    1  UNL1       -0.2293
     11 C         141.3570  139.8651  168.5334 C.ar    1  UNL1        0.1208
     12 C         142.6302  139.9624  169.3204 C.3     1  UNL1        0.0718
     13 N         141.2488  139.7572  167.0412 N.ar    1  UNL1       -0.3155
     14 C         142.3950  139.7277  166.0740 C.3     1  UNL1        0.0868
     15 C         142.9998  141.0115  165.5882 C.3     1  UNL1        0.0245
     16 C         142.9365  138.4142  165.5926 C.3     1  UNL1        0.0245
     17 N         137.5061  141.8666  162.5623 N.pl3   1  UNL1       -0.2825
     18 H         136.5856  142.1508  162.7652 H       1  UNL1        0.1551
     19 C         139.9772  144.1884  159.6038 C.ar    1  UNL1        0.0808
     20 C         139.2327  142.9636  159.1616 C.ar    1  UNL1        0.0080
     21 C         138.4090  142.1897  160.1478 C.ar    1  UNL1        0.0150
     22 C         138.3298  142.6405  161.5762 C.ar    1  UNL1        0.0527
     23 C         139.0743  143.8653  162.0184 C.ar    1  UNL1        0.0444
     24 C         139.8980  144.6392  161.0322 C.ar    1  UNL1        0.1457
     25 F         140.6426  145.8640  161.4745 F       1  UNL1       -0.2040
     26 C         141.0137  146.1957  156.3409 C.3     1  UNL1        0.1109
     27 N         140.1900  145.4218  157.3271 N.am    1  UNL1       -0.2991
     28 C         140.8010  144.9623  158.6176 C.2     1  UNL1        0.2481
     29 O         142.2357  145.2766  158.9220 O.2     1  UNL1       -0.2701
     30 H         139.2483  145.2155  157.1274 H       1  UNL1        0.1498
@<TRIPOS>BOND
     1    26    27    1
     2    27    28   am
     3    28    29    2
     4    28    19    1
     5    19    20   ar
     6    20    21   ar
     7    21    22   ar
     8    22    17    1
     9    17     1    1
    10     1     2   ar
    11     2     3   ar
    12     3     4   ar
    13     4     5    1
    14     4     6   ar
    15     6     8    1
    16     8     9   ar
    17     9    10   ar
    18    10    11   ar
    19    11    12    1
    20    11    13   ar
    21    13    14    1
    22    14    15    1
    23    14    16    1
    24     6     7   ar
    25    22    23   ar
    26    23    24   ar
    27    24    25    1
    28    24    19   ar
    29     7     1   ar
    30    13     8   ar
    31    27    30    1
    32    17    18    1
@<TRIPOS>MOLECULE
*****
 30 32 0 0 0
SMALL
GASTEIGER

@<TRIPOS>ATOM
      1 C         142.4715  139.1844  163.0125 C.ar    1  UNL1        0.2209
      2 N         143.6601  138.8594  162.1571 N.ar    1  UNL1       -0.2096
      3 C         144.0178  139.7470  161.0020 C.ar    1  UNL1        0.1330
      4 C         143.1871  140.9594  160.7023 C.ar    1  UNL1        0.1783
      5 F         143.5450  141.8470  159.5472 F       1  UNL1       -0.2009
      6 C         141.9986  141.2844  161.5577 C.ar    1  UNL1        0.1303
      7 N         141.6407  140.3968  162.7129 N.ar    1  UNL1       -0.2097
      8 C         141.1678  142.4968  161.2580 C.ar    1  UNL1        0.1003
      9 C         140.2133  142.6501  160.1111 C.ar    1  UNL1        0.1189
     10 N         139.6013  144.0169  160.1969 N.ar    1  UNL1       -0.2293
     11 C         140.1776  144.7084  161.3968 C.ar    1  UNL1        0.1208
     12 C         139.8443  146.0957  161.8597 C.3     1  UNL1        0.0718
     13 N         141.1457  143.7689  162.0526 N.ar    1  UNL1       -0.3155
     14 C         141.9505  144.0518  163.2864 C.3     1  UNL1        0.0868
     15 C         143.2523  144.7894  163.1801 C.3     1  UNL1        0.0245
     16 C         141.4535  143.5972  164.6267 C.3     1  UNL1        0.0245
     17 N         142.1137  138.2969  164.1676 N.pl3   1  UNL1       -0.2825
     18 H         142.2117  137.3206  164.0871 H       1  UNL1        0.1551
     19 C         140.5922  140.0967  168.0011 C.ar    1  UNL1        0.0808
     20 C         139.6276  139.7096  166.9196 C.ar    1  UNL1        0.0080
     21 C         140.1348  139.1097  165.6418 C.ar    1  UNL1        0.0150
     22 C         141.6065  138.8968  165.4454 C.ar    1  UNL1        0.0527
     23 C         142.5711  139.2838  166.5270 C.ar    1  UNL1        0.0444
     24 C         142.0639  139.8838  167.8048 C.ar    1  UNL1        0.1457
     25 F         143.0286  140.2708  168.8864 F       1  UNL1       -0.2040
     26 C         139.6916  142.7741  170.7886 C.3     1  UNL1        0.1109
     27 N         140.1988  142.1742  169.5108 N.am    1  UNL1       -0.2991
     28 C         140.0850  140.6966  169.2789 C.2     1  UNL1        0.2481
     29 O         139.4641  139.8190  170.3249 O.2     1  UNL1       -0.2701
     30 H         140.6063  142.7502  168.8243 H       1  UNL1        0.1498
@<TRIPOS>BOND
     1    26    27    1
     2    27    28   am
     3    28    29    2
     4    28    19    1
     5    19    20   ar
     6    20    21   ar
     7    21    22   ar
     8    22    17    1
     9    17     1    1
    10     1     2   ar
    11     2     3   ar
    12     3     4   ar
    13     4     5    1
    14     4     6   ar
    15     6     8    1
    16     8     9   ar
    17     9    10   ar
    18    10    11   ar
    19    11    12    1
    20    11    13   ar
    21    13    14    1
    22    14    15    1
    23    14    16    1
    24     6     7   ar
    25    22    23   ar
    26    23    24   ar
    27    24    25    1
    28    24    19   ar
    29     7     1   ar
    30    13     8   ar
    31    27    30    1
    32    17    18    1
@<TRIPOS>MOLECULE
*****
 30 32 0 0 0
SMALL
GASTEIGER

@<TRIPOS>ATOM
      1 C         139.6430  138.6782  162.4118 C.ar    1  UNL1        0.2209
      2 N         139.3601  138.1403  161.0404 N.ar    1  UNL1       -0.2096
      3 C         138.9085  139.0661  159.9501 C.ar    1  UNL1        0.1330
      4 C         138.7399  140.5299  160.2310 C.ar    1  UNL1        0.1783
      5 F         138.2883  141.4557  159.1406 F       1  UNL1       -0.2009
      6 C         139.0228  141.0678  161.6023 C.ar    1  UNL1        0.1303
      7 N         139.4744  140.1420  162.6928 N.ar    1  UNL1       -0.2097
      8 C         138.8542  142.5316  161.8833 C.ar    1  UNL1        0.1003
      9 C         137.7010  143.1638  162.6046 C.ar    1  UNL1        0.1189
     10 N         137.9433  144.6431  162.6594 N.ar    1  UNL1       -0.2293
     11 C         139.2462  144.9252  161.9719 C.ar    1  UNL1        0.1208
     12 C         139.8757  146.2751  161.7950 C.3     1  UNL1        0.0718
     13 N         139.8092  143.6202  161.4922 N.ar    1  UNL1       -0.3155
     14 C         141.1005  143.4361  160.7515 C.3     1  UNL1        0.0868
     15 C         141.0997  143.3415  159.2545 C.3     1  UNL1        0.0245
     16 C         142.3929  143.3467  161.5078 C.3     1  UNL1        0.0245
     17 N         140.0946  137.7524  163.5022 N.pl3   1  UNL1       -0.2825
     18 H         139.9712  136.7805  163.4052 H       1  UNL1        0.1551
     19 C         142.0131  139.4173  167.2167 C.ar    1  UNL1        0.0808
     20 C         140.5654  139.6894  166.9338 C.ar    1  UNL1        0.0080
     21 C         139.9259  139.1345  165.6956 C.ar    1  UNL1        0.0150
     22 C         140.7341  138.3073  164.7403 C.ar    1  UNL1        0.0527
     23 C         142.1818  138.0352  165.0232 C.ar    1  UNL1        0.0444
     24 C         142.8213  138.5901  166.2614 C.ar    1  UNL1        0.1457
     25 F         144.2690  138.3179  166.5442 F       1  UNL1       -0.2040
     26 C         143.5647  141.9982  169.8015 C.3     1  UNL1        0.1109
     27 N         142.9252  141.4432  168.5633 N.am    1  UNL1       -0.2991
     28 C         142.6526  139.9722  168.4548 C.2     1  UNL1        0.2481
     29 O         143.0195  139.0562  169.5845 O.2     1  UNL1       -0.2701
     30 H         142.6844  142.0445  167.8219 H       1  UNL1        0.1498
@<TRIPOS>BOND
     1    26    27    1
     2    27    28   am
     3    28    29    2
     4    28    19    1
     5    19    20   ar
     6    20    21   ar
     7    21    22   ar
     8    22    17    1
     9    17     1    1
    10     1     2   ar
    11     2     3   ar
    12     3     4   ar
    13     4     5    1
    14     4     6   ar
    15     6     8    1
    16     8     9   ar
    17     9    10   ar
    18    10    11   ar
    19    11    12    1
    20    11    13   ar
    21    13    14    1
    22    14    15    1
    23    14    16    1
    24     6     7   ar
    25    22    23   ar
    26    23    24   ar
    27    24    25    1
    28    24    19   ar
    29     7     1   ar
    30    13     8   ar
    31    27    30    1
    32    17    18    1
@<TRIPOS>MOLECULE
*****
 30 32 0 0 0
SMALL
GASTEIGER

@<TRIPOS>ATOM
      1 C         143.4284  142.4809  167.4016 C.ar    1  UNL1        0.2209
      2 N         143.6220  142.4155  168.8877 N.ar    1  UNL1       -0.2096
      3 C         142.7479  141.5244  169.7195 C.ar    1  UNL1        0.1330
      4 C         141.6802  140.6987  169.0653 C.ar    1  UNL1        0.1783
      5 F         140.8061  139.8075  169.8971 F       1  UNL1       -0.2009
      6 C         141.4865  140.7640  167.5793 C.ar    1  UNL1        0.1303
      7 N         142.3606  141.6551  166.7474 N.ar    1  UNL1       -0.2097
      8 C         140.4188  139.9382  166.9251 C.ar    1  UNL1        0.1003
      9 C         139.0156  139.7563  167.4232 C.ar    1  UNL1        0.1189
     10 N         138.2963  138.8550  166.4638 N.ar    1  UNL1       -0.2293
     11 C         139.2549  138.4799  165.3728 C.ar    1  UNL1        0.1208
     12 C         138.9546  137.5913  164.2022 C.3     1  UNL1        0.0718
     13 N         140.5666  139.1493  165.6579 N.ar    1  UNL1       -0.3155
     14 C         141.8083  139.0477  164.8223 C.3     1  UNL1        0.0868
     15 C         143.0004  138.2977  165.3383 C.3     1  UNL1        0.0245
     16 C         141.8578  139.6963  163.4706 C.3     1  UNL1        0.0245
     17 N         144.3025  143.3720  166.5699 N.pl3   1  UNL1       -0.2825
     18 H         144.9234  143.9989  167.0064 H       1  UNL1        0.1551
     19 C         144.0866  143.1795  162.0792 C.ar    1  UNL1        0.0808
     20 C         143.6107  144.4052  162.8011 C.ar    1  UNL1        0.0080
     21 C         143.6827  144.4693  164.2980 C.ar    1  UNL1        0.0150
     22 C         144.2305  143.3078  165.0730 C.ar    1  UNL1        0.0527
     23 C         144.7064  142.0821  164.3511 C.ar    1  UNL1        0.0444
     24 C         144.6344  142.0180  162.8542 C.ar    1  UNL1        0.1457
     25 F         145.1103  140.7922  162.1323 F       1  UNL1       -0.2040
     26 C         142.7384  143.5860  158.3688 C.3     1  UNL1        0.1109
     27 N         142.8103  143.6502  159.8657 N.am    1  UNL1       -0.2991
     28 C         144.0146  143.1153  160.5823 C.2     1  UNL1        0.2481
     29 O         145.1470  142.5163  159.8020 O.2     1  UNL1       -0.2701
     30 H         142.0671  144.0433  160.3778 H       1  UNL1        0.1498
@<TRIPOS>BOND
     1    26    27    1
     2    27    28   am
     3    28    29    2
     4    28    19    1
     5    19    20   ar
     6    20    21   ar
     7    21    22   ar
     8    22    17    1
     9    17     1    1
    10     1     2   ar
    11     2     3   ar
    12     3     4   ar
    13     4     5    1
    14     4     6   ar
    15     6     8    1
    16     8     9   ar
    17     9    10   ar
    18    10    11   ar
    19    11    12    1
    20    11    13   ar
    21    13    14    1
    22    14    15    1
    23    14    16    1
    24     6     7   ar
    25    22    23   ar
    26    23    24   ar
    27    24    25    1
    28    24    19   ar
    29     7     1   ar
    30    13     8   ar
    31    27    30    1
    32    17    18    1
@<TRIPOS>MOLECULE
*****
 30 32 0 0 0
SMALL
GASTEIGER

@<TRIPOS>ATOM
      1 C         143.9412  141.8894  163.9680 C.ar    1  UNL1        0.2209
      2 N         144.9927  140.8258  163.8530 N.ar    1  UNL1       -0.2096
      3 C         144.8019  139.5053  164.5383 C.ar    1  UNL1        0.1330
      4 C         143.5596  139.2482  165.3387 C.ar    1  UNL1        0.1783
      5 F         143.3689  137.9276  166.0241 F       1  UNL1       -0.2009
      6 C         142.5081  140.3117  165.4538 C.ar    1  UNL1        0.1303
      7 N         142.6989  141.6323  164.7684 N.ar    1  UNL1       -0.2097
      8 C         141.2658  140.0546  166.2542 C.ar    1  UNL1        0.1003
      9 C         140.9894  140.5591  167.6395 C.ar    1  UNL1        0.1189
     10 N         139.6346  140.0643  168.0513 N.ar    1  UNL1       -0.2293
     11 C         139.0737  139.2539  166.9205 C.ar    1  UNL1        0.1208
     12 C         137.7389  138.5697  166.9033 C.3     1  UNL1        0.0718
     13 N         140.0818  139.2480  165.8098 N.ar    1  UNL1       -0.3155
     14 C         139.9322  138.5567  164.4870 C.3     1  UNL1        0.0868
     15 C         140.6287  137.2514  164.2398 C.3     1  UNL1        0.0245
     16 C         139.0861  139.1708  163.4113 C.3     1  UNL1        0.0245
     17 N         144.1319  143.2099  163.2826 N.pl3   1  UNL1       -0.2825
     18 H         144.8510  143.8162  163.5736 H       1  UNL1        0.1551
     19 C         141.4177  144.4004  159.8966 C.ar    1  UNL1        0.0808
     20 C         142.5049  143.3927  159.6675 C.ar    1  UNL1        0.0080
     21 C         143.4096  142.9959  160.7962 C.ar    1  UNL1        0.0150
     22 C         143.2272  143.6067  162.1540 C.ar    1  UNL1        0.0527
     23 C         142.1400  144.6145  162.3830 C.ar    1  UNL1        0.0444
     24 C         141.2353  145.0113  161.2543 C.ar    1  UNL1        0.1457
     25 F         140.1481  146.0191  161.4834 F       1  UNL1       -0.2040
     26 C         139.9530  146.3753  156.7814 C.3     1  UNL1        0.1109
     27 N         140.8577  145.9785  157.9101 N.am    1  UNL1       -0.2991
     28 C         140.5130  144.7973  158.7679 C.2     1  UNL1        0.2481
     29 O         139.2634  144.0129  158.4970 O.2     1  UNL1       -0.2701
     30 H         141.6778  146.4933  158.0879 H       1  UNL1        0.1498
@<TRIPOS>BOND
     1    26    27    1
     2    27    28   am
     3    28    29    2
     4    28    19    1
     5    19    20   ar
     6    20    21   ar
     7    21    22   ar
     8    22    17    1
     9    17     1    1
    10     1     2   ar
    11     2     3   ar
    12     3     4   ar
    13     4     5    1
    14     4     6   ar
    15     6     8    1
    16     8     9   ar
    17     9    10   ar
    18    10    11   ar
    19    11    12    1
    20    11    13   ar
    21    13    14    1
    22    14    15    1
    23    14    16    1
    24     6     7   ar
    25    22    23   ar
    26    23    24   ar
    27    24    25    1
    28    24    19   ar
    29     7     1   ar
    30    13     8   ar
    31    27    30    1
    32    17    18    1
@<TRIPOS>MOLECULE
*****
 30 32 0 0 0
SMALL
GASTEIGER

@<TRIPOS>ATOM
      1 C         142.1906  138.8503  162.7482 C.ar    1  UNL1        0.2209
      2 N         141.8398  137.9684  161.5866 N.ar    1  UNL1       -0.2096
      3 C         141.3833  138.5769  160.2938 C.ar    1  UNL1        0.1330
      4 C         141.2775  140.0674  160.1626 C.ar    1  UNL1        0.1783
      5 F         140.8209  140.6760  158.8698 F       1  UNL1       -0.2009
      6 C         141.6282  140.9494  161.3241 C.ar    1  UNL1        0.1303
      7 N         142.0848  140.3408  162.6170 N.ar    1  UNL1       -0.2097
      8 C         141.5224  142.4399  161.1929 C.ar    1  UNL1        0.1003
      9 C         142.4276  143.3202  160.3831 C.ar    1  UNL1        0.1189
     10 N         141.9574  144.7361  160.5382 N.ar    1  UNL1       -0.2293
     11 C         140.7617  144.7310  161.4438 C.ar    1  UNL1        0.1208
     12 C         139.9733  145.9337  161.8700 C.3     1  UNL1        0.0718
     13 N         140.4929  143.3118  161.8485 N.ar    1  UNL1       -0.3155
     14 C         139.3883  142.8463  162.7503 C.3     1  UNL1        0.0868
     15 C         139.6324  142.7041  164.2235 C.3     1  UNL1        0.0245
     16 C         138.0395  142.5230  162.1790 C.3     1  UNL1        0.0245
     17 N         142.6471  138.2417  164.0409 N.pl3   1  UNL1       -0.2825
     18 H         143.2730  137.4819  164.0333 H       1  UNL1        0.1551
     19 C         141.1556  139.8891  167.9539 C.ar    1  UNL1        0.0808
     20 C         142.5988  139.5100  167.8011 C.ar    1  UNL1        0.0080
     21 C         143.0960  138.9609  166.4968 C.ar    1  UNL1        0.0150
     22 C         142.1499  138.7909  165.3452 C.ar    1  UNL1        0.0527
     23 C         140.7067  139.1700  165.4980 C.ar    1  UNL1        0.0444
     24 C         140.2096  139.7191  166.8024 C.ar    1  UNL1        0.1457
     25 F         138.7663  140.0982  166.9552 F       1  UNL1       -0.2040
     26 C         139.9756  142.4662  170.7317 C.3     1  UNL1        0.1109
     27 N         140.4728  141.9170  169.4274 N.am    1  UNL1       -0.2991
     28 C         140.6585  140.4383  169.2582 C.2     1  UNL1        0.2481
     29 O         140.3470  139.5086  170.3934 O.2     1  UNL1       -0.2701
     30 H         140.6772  142.5272  168.6823 H       1  UNL1        0.1498
@<TRIPOS>BOND
     1    26    27    1
     2    27    28   am
     3    28    29    2
     4    28    19    1
     5    19    20   ar
     6    20    21   ar
     7    21    22   ar
     8    22    17    1
     9    17     1    1
    10     1     2   ar
    11     2     3   ar
    12     3     4   ar
    13     4     5    1
    14     4     6   ar
    15     6     8    1
    16     8     9   ar
    17     9    10   ar
    18    10    11   ar
    19    11    12    1
    20    11    13   ar
    21    13    14    1
    22    14    15    1
    23    14    16    1
    24     6     7   ar
    25    22    23   ar
    26    23    24   ar
    27    24    25    1
    28    24    19   ar
    29     7     1   ar
    30    13     8   ar
    31    27    30    1
    32    17    18    1
