@<TRIPOS>MOLECULE
*****
 33 36 0 0 0
SMALL
GASTEIGER

@<TRIPOS>ATOM
      1 N         143.5751  140.9769  161.5812 N.3     1  UNL1       -0.2685
      2 C         144.3719  139.8849  162.2312 C.3     1  UNL1        0.1035
      3 C         144.1166  139.5214  163.6639 C.3     1  UNL1        0.1470
      4 C         143.8614  139.1578  165.0967 C.3     1  UNL1        0.1037
      5 N         142.8093  139.8862  165.8793 N.3     1  UNL1       -0.2647
      6 C         142.0125  140.9783  165.2292 C.3     1  UNL1        0.1037
      7 C         142.2678  141.3418  163.7965 C.3     1  UNL1        0.1470
      8 C         142.5230  141.7053  162.3638 C.3     1  UNL1        0.1035
      9 O         143.0646  140.2498  164.4465 O.3     1  UNL1       -0.3530
     10 C         143.8303  141.3405  160.1484 C.3     1  UNL1        0.0737
     11 C         143.4097  140.4078  159.0516 C.3     1  UNL1        0.0362
     12 C         142.0756  139.7251  159.1180 C.3     1  UNL1        0.0929
     13 N         141.9263  138.4432  159.8824 N.3     1  UNL1       -0.1793
     14 H         141.4666  137.7801  159.2584 H       1  UNL1        0.1488
     15 S         141.1624  138.4244  161.1731 S.O2    1  UNL1        0.0602
     16 O         141.9976  137.2735  161.6505 O.2     1  UNL1       -0.1530
     17 O         140.3273  139.5752  160.6957 O.2     1  UNL1       -0.1530
     18 C         138.8707  138.3678  165.0454 C.ar    1  UNL1        0.0685
     19 C         138.4369  139.2724  163.9303 C.ar    1  UNL1        0.0116
     20 C         139.2008  139.2913  162.6396 C.ar    1  UNL1        0.0206
     21 C         140.3985  138.4055  162.4639 C.ar    1  UNL1        0.1220
     22 C         140.8322  137.5008  163.5790 C.ar    1  UNL1        0.0206
     23 C         140.0683  137.4820  164.8697 C.ar    1  UNL1        0.0116
     24 N         137.3428  138.3302  167.6269 N.1     1  UNL1       -0.1908
     25 C         138.1067  138.3489  166.3362 C.1     1  UNL1        0.1004
     26 C         142.5541  139.5227  167.3120 C.3     1  UNL1        0.0993
     27 C         141.7602  140.4444  168.1897 C.ar    1  UNL1       -0.0060
     28 C         140.3730  140.0646  168.6155 C.ar    1  UNL1       -0.0006
     29 C         139.5791  140.9862  169.4932 C.ar    1  UNL1        0.0294
     30 C         140.1724  142.2876  169.9450 C.ar    1  UNL1        0.1401
     31 F         139.3785  143.2093  170.8227 F       1  UNL1       -0.2042
     32 C         141.5596  142.6674  169.5191 C.ar    1  UNL1        0.0294
     33 C         142.3535  141.7458  168.6415 C.ar    1  UNL1       -0.0006
@<TRIPOS>BOND
     1    24    25    3
     2    25    18    1
     3    18    19   ar
     4    19    20   ar
     5    20    21   ar
     6    21    15    1
     7    15    16    2
     8    15    17    2
     9    15    13    1
    10    13    12    1
    11    12    11    1
    12    11    10    1
    13    10     1    1
    14     1     2    1
    15     2     3    1
    16     3     4    1
    17     4     5    1
    18     5    26    1
    19    26    27    1
    20    27    28   ar
    21    28    29   ar
    22    29    30   ar
    23    30    31    1
    24    30    32   ar
    25    32    33   ar
    26     5     6    1
    27     6     7    1
    28     7     8    1
    29     7     9    1
    30    21    22   ar
    31    22    23   ar
    32    23    18   ar
    33     8     1    1
    34     9     3    1
    35    33    27   ar
    36    13    14    1
@<TRIPOS>MOLECULE
*****
 33 36 0 0 0
SMALL
GASTEIGER

@<TRIPOS>ATOM
      1 N         142.4413  143.2389  160.8395 N.3     1  UNL1       -0.2685
      2 C         141.9675  141.8319  161.0534 C.3     1  UNL1        0.1035
      3 C         142.0940  141.1954  162.4057 C.3     1  UNL1        0.1470
      4 C         142.2205  140.5588  163.7580 C.3     1  UNL1        0.1037
      5 N         142.8208  141.3292  164.8964 N.3     1  UNL1       -0.2647
      6 C         143.2946  142.7363  164.6825 C.3     1  UNL1        0.1037
      7 C         143.1681  143.3728  163.3302 C.3     1  UNL1        0.1470
      8 C         143.0417  144.0094  161.9779 C.3     1  UNL1        0.1035
      9 O         142.6943  141.9658  163.5441 O.3     1  UNL1       -0.3530
     10 C         142.3149  143.8756  159.4871 C.3     1  UNL1        0.0737
     11 C         141.4622  145.0968  159.3099 C.3     1  UNL1        0.0362
     12 C         140.0238  145.0755  159.7352 C.3     1  UNL1        0.0929
     13 N         139.6608  145.3421  161.1659 N.3     1  UNL1       -0.1793
     14 H         140.4534  145.8282  161.5851 H       1  UNL1        0.1488
     15 S         139.3206  144.2013  162.0784 S.O2    1  UNL1        0.0602
     16 O         138.6888  143.4714  160.9304 O.2     1  UNL1       -0.1530
     17 O         139.9523  144.9313  163.2265 O.2     1  UNL1       -0.1530
     18 C         138.2999  140.7789  164.8161 C.ar    1  UNL1        0.0685
     19 C         139.1411  141.9151  165.3174 C.ar    1  UNL1        0.0116
     20 C         139.4813  143.0559  164.4049 C.ar    1  UNL1        0.0206
     21 C         138.9803  143.0605  162.9911 C.ar    1  UNL1        0.1220
     22 C         138.1391  141.9243  162.4898 C.ar    1  UNL1        0.0206
     23 C         137.7988  140.7835  163.4023 C.ar    1  UNL1        0.0116
     24 N         137.6194  138.4973  166.6413 N.1     1  UNL1       -0.1908
     25 C         137.9596  139.6381  165.7288 C.1     1  UNL1        0.1004
     26 C         142.9473  140.6927  166.2487 C.3     1  UNL1        0.0993
     27 C         141.9275  140.9792  167.3109 C.ar    1  UNL1       -0.0060
     28 C         141.8105  142.3599  167.8853 C.ar    1  UNL1       -0.0006
     29 C         140.7909  142.6465  168.9474 C.ar    1  UNL1        0.0294
     30 C         139.8883  141.5523  169.4352 C.ar    1  UNL1        0.1401
     31 F         138.8685  141.8388  170.4974 F       1  UNL1       -0.2042
     32 C         140.0053  140.1716  168.8608 C.ar    1  UNL1        0.0294
     33 C         141.0249  139.8850  167.7987 C.ar    1  UNL1       -0.0006
@<TRIPOS>BOND
     1    24    25    3
     2    25    18    1
     3    18    19   ar
     4    19    20   ar
     5    20    21   ar
     6    21    15    1
     7    15    16    2
     8    15    17    2
     9    15    13    1
    10    13    12    1
    11    12    11    1
    12    11    10    1
    13    10     1    1
    14     1     2    1
    15     2     3    1
    16     3     4    1
    17     4     5    1
    18     5    26    1
    19    26    27    1
    20    27    28   ar
    21    28    29   ar
    22    29    30   ar
    23    30    31    1
    24    30    32   ar
    25    32    33   ar
    26     5     6    1
    27     6     7    1
    28     7     8    1
    29     7     9    1
    30    21    22   ar
    31    22    23   ar
    32    23    18   ar
    33     8     1    1
    34     9     3    1
    35    33    27   ar
    36    13    14    1
@<TRIPOS>MOLECULE
*****
 33 36 0 0 0
SMALL
GASTEIGER

@<TRIPOS>ATOM
      1 N         142.8963  141.4979  160.3977 N.3     1  UNL1       -0.2685
      2 C         141.4319  141.5646  160.7154 C.3     1  UNL1        0.1035
      3 C         140.9807  141.8948  162.1072 C.3     1  UNL1        0.1470
      4 C         140.5294  142.2251  163.4991 C.3     1  UNL1        0.1037
      5 N         141.5427  142.4887  164.5733 N.3     1  UNL1       -0.2647
      6 C         143.0072  142.4220  164.2556 C.3     1  UNL1        0.1037
      7 C         143.4584  142.0918  162.8638 C.3     1  UNL1        0.1470
      8 C         143.9096  141.7615  161.4719 C.3     1  UNL1        0.1035
      9 O         141.9939  142.1584  163.1814 O.3     1  UNL1       -0.3530
     10 C         143.3476  141.1676  159.0058 C.3     1  UNL1        0.0737
     11 C         143.7089  139.7561  158.6496 C.3     1  UNL1        0.0362
     12 C         143.0323  138.6109  159.3431 C.3     1  UNL1        0.0929
     13 N         143.4254  138.2441  160.7434 N.3     1  UNL1       -0.1793
     14 H         143.8280  137.3079  160.7005 H       1  UNL1        0.1488
     15 S         142.3927  138.2219  161.8309 S.O2    1  UNL1        0.0602
     16 O         141.3165  138.0242  160.8049 O.2     1  UNL1       -0.1530
     17 O         143.4688  138.4197  162.8569 O.2     1  UNL1       -0.1530
     18 C         139.2942  138.1555  165.0936 C.ar    1  UNL1        0.0685
     19 C         140.6888  138.6198  165.3930 C.ar    1  UNL1        0.0116
     20 C         141.7216  138.6420  164.3054 C.ar    1  UNL1        0.0206
     21 C         141.3598  138.1998  162.9185 C.ar    1  UNL1        0.1220
     22 C         139.9653  137.7354  162.6192 C.ar    1  UNL1        0.0206
     23 C         138.9325  137.7132  163.7067 C.ar    1  UNL1        0.0116
     24 N         137.2287  138.1111  167.2688 N.1     1  UNL1       -0.1908
     25 C         138.2614  138.1333  166.1812 C.1     1  UNL1        0.1004
     26 C         141.0915  142.8190  165.9652 C.3     1  UNL1        0.0993
     27 C         141.2270  141.8013  167.0589 C.ar    1  UNL1       -0.0060
     28 C         140.0017  141.1800  167.6611 C.ar    1  UNL1       -0.0006
     29 C         140.1372  140.1624  168.7548 C.ar    1  UNL1        0.0294
     30 C         141.4979  139.7661  169.2462 C.ar    1  UNL1        0.1401
     31 F         141.6334  138.7485  170.3399 F       1  UNL1       -0.2042
     32 C         142.7231  140.3875  168.6439 C.ar    1  UNL1        0.0294
     33 C         142.5876  141.4051  167.5503 C.ar    1  UNL1       -0.0006
@<TRIPOS>BOND
     1    24    25    3
     2    25    18    1
     3    18    19   ar
     4    19    20   ar
     5    20    21   ar
     6    21    15    1
     7    15    16    2
     8    15    17    2
     9    15    13    1
    10    13    12    1
    11    12    11    1
    12    11    10    1
    13    10     1    1
    14     1     2    1
    15     2     3    1
    16     3     4    1
    17     4     5    1
    18     5    26    1
    19    26    27    1
    20    27    28   ar
    21    28    29   ar
    22    29    30   ar
    23    30    31    1
    24    30    32   ar
    25    32    33   ar
    26     5     6    1
    27     6     7    1
    28     7     8    1
    29     7     9    1
    30    21    22   ar
    31    22    23   ar
    32    23    18   ar
    33     8     1    1
    34     9     3    1
    35    33    27   ar
    36    13    14    1
@<TRIPOS>MOLECULE
*****
 33 36 0 0 0
SMALL
GASTEIGER

@<TRIPOS>ATOM
      1 N         141.9413  144.3665  160.1646 N.3     1  UNL1       -0.2685
      2 C         143.0567  143.3771  160.3283 C.3     1  UNL1        0.1035
      3 C         143.5579  143.0320  161.6993 C.3     1  UNL1        0.1470
      4 C         144.0591  142.6868  163.0703 C.3     1  UNL1        0.1037
      5 N         143.4449  143.3311  164.2776 N.3     1  UNL1       -0.2647
      6 C         142.3294  144.3206  164.1139 C.3     1  UNL1        0.1037
      7 C         141.8282  144.6657  162.7429 C.3     1  UNL1        0.1470
      8 C         141.3270  145.0108  161.3719 C.3     1  UNL1        0.1035
      9 O         142.9437  143.6763  162.9066 O.3     1  UNL1       -0.3530
     10 C         141.4400  144.7116  158.7936 C.3     1  UNL1        0.0737
     11 C         140.6868  143.6920  157.9917 C.3     1  UNL1        0.0362
     12 C         139.7198  142.7684  158.6714 C.3     1  UNL1        0.0929
     13 N         138.8486  143.2788  159.7807 N.3     1  UNL1       -0.1793
     14 H         139.2227  144.1873  160.0546 H       1  UNL1        0.1488
     15 S         138.6909  142.4781  161.0392 S.O2    1  UNL1        0.0602
     16 O         139.5649  141.4030  160.4648 O.2     1  UNL1       -0.1530
     17 O         137.8168  143.5533  161.6137 O.2     1  UNL1       -0.1530
     18 C         138.2174  140.0763  164.8151 C.ar    1  UNL1        0.0685
     19 C         138.2822  139.3814  163.4873 C.ar    1  UNL1        0.0116
     20 C         138.4400  140.1820  162.2287 C.ar    1  UNL1        0.0206
     21 C         138.5330  141.6775  162.2979 C.ar    1  UNL1        0.1220
     22 C         138.4683  142.3724  163.6256 C.ar    1  UNL1        0.0206
     23 C         138.3105  141.5718  164.8842 C.ar    1  UNL1        0.0116
     24 N         137.9019  138.4750  167.3323 N.1     1  UNL1       -0.1908
     25 C         138.0596  139.2756  166.0737 C.1     1  UNL1        0.1004
     26 C         143.9461  142.9860  165.6486 C.3     1  UNL1        0.0993
     27 C         143.1226  142.1158  166.5512 C.ar    1  UNL1       -0.0060
     28 C         143.1833  142.3073  168.0377 C.ar    1  UNL1       -0.0006
     29 C         142.3599  141.4372  168.9403 C.ar    1  UNL1        0.0294
     30 C         141.4757  140.3755  168.3564 C.ar    1  UNL1        0.1401
     31 F         140.6522  139.5052  169.2590 F       1  UNL1       -0.2042
     32 C         141.4150  140.1839  166.8699 C.ar    1  UNL1        0.0294
     33 C         142.2384  141.0541  165.9673 C.ar    1  UNL1       -0.0006
@<TRIPOS>BOND
     1    24    25    3
     2    25    18    1
     3    18    19   ar
     4    19    20   ar
     5    20    21   ar
     6    21    15    1
     7    15    16    2
     8    15    17    2
     9    15    13    1
    10    13    12    1
    11    12    11    1
    12    11    10    1
    13    10     1    1
    14     1     2    1
    15     2     3    1
    16     3     4    1
    17     4     5    1
    18     5    26    1
    19    26    27    1
    20    27    28   ar
    21    28    29   ar
    22    29    30   ar
    23    30    31    1
    24    30    32   ar
    25    32    33   ar
    26     5     6    1
    27     6     7    1
    28     7     8    1
    29     7     9    1
    30    21    22   ar
    31    22    23   ar
    32    23    18   ar
    33     8     1    1
    34     9     3    1
    35    33    27   ar
    36    13    14    1
@<TRIPOS>MOLECULE
*****
 33 36 0 0 0
SMALL
GASTEIGER

@<TRIPOS>ATOM
      1 N         142.8374  138.5173  159.5078 N.3     1  UNL1       -0.2685
      2 C         143.3298  139.9232  159.6835 C.3     1  UNL1        0.1035
      3 C         143.6160  140.4513  161.0580 C.3     1  UNL1        0.1470
      4 C         143.9022  140.9795  162.4325 C.3     1  UNL1        0.1037
      5 N         143.6959  140.1017  163.6312 N.3     1  UNL1       -0.2647
      6 C         143.2035  138.6957  163.4554 C.3     1  UNL1        0.1037
      7 C         142.9173  138.1676  162.0810 C.3     1  UNL1        0.1470
      8 C         142.6312  137.6395  160.7065 C.3     1  UNL1        0.1035
      9 O         143.4097  139.5735  162.2567 O.3     1  UNL1       -0.3530
     10 C         142.5512  137.9891  158.1333 C.3     1  UNL1        0.0737
     11 C         141.1806  138.1389  157.5426 C.3     1  UNL1        0.0362
     12 C         139.9928  138.3207  158.4404 C.3     1  UNL1        0.0929
     13 N         139.8864  139.5414  159.3056 N.3     1  UNL1       -0.1793
     14 H         140.7919  140.0095  159.2670 H       1  UNL1        0.1488
     15 S         139.5318  139.4037  160.7565 S.O2    1  UNL1        0.0602
     16 O         138.9854  138.0319  160.4928 O.2     1  UNL1       -0.1530
     17 O         140.0782  140.7755  161.0203 O.2     1  UNL1       -0.1530
     18 C         138.4678  138.9908  165.1094 C.ar    1  UNL1        0.0685
     19 C         139.0071  137.8124  164.3541 C.ar    1  UNL1        0.0116
     20 C         139.3618  137.9500  162.9032 C.ar    1  UNL1        0.0206
     21 C         139.1771  139.2660  162.2075 C.ar    1  UNL1        0.1220
     22 C         138.6377  140.4444  162.9628 C.ar    1  UNL1        0.0206
     23 C         138.2831  140.3068  164.4137 C.ar    1  UNL1        0.0116
     24 N         137.7584  138.7155  168.0113 N.1     1  UNL1       -0.1908
     25 C         138.1131  138.8532  166.5604 C.1     1  UNL1        0.1004
     26 C         143.9821  140.6298  165.0057 C.3     1  UNL1        0.0993
     27 C         142.8626  140.8117  165.9874 C.ar    1  UNL1       -0.0060
     28 C         142.0423  142.0674  165.9651 C.ar    1  UNL1       -0.0006
     29 C         140.9228  142.2494  166.9467 C.ar    1  UNL1        0.0294
     30 C         140.6236  141.1758  167.9506 C.ar    1  UNL1        0.1401
     31 F         139.5041  141.3578  168.9323 F       1  UNL1       -0.2042
     32 C         141.4439  139.9201  167.9728 C.ar    1  UNL1        0.0294
     33 C         142.5634  139.7381  166.9912 C.ar    1  UNL1       -0.0006
@<TRIPOS>BOND
     1    24    25    3
     2    25    18    1
     3    18    19   ar
     4    19    20   ar
     5    20    21   ar
     6    21    15    1
     7    15    16    2
     8    15    17    2
     9    15    13    1
    10    13    12    1
    11    12    11    1
    12    11    10    1
    13    10     1    1
    14     1     2    1
    15     2     3    1
    16     3     4    1
    17     4     5    1
    18     5    26    1
    19    26    27    1
    20    27    28   ar
    21    28    29   ar
    22    29    30   ar
    23    30    31    1
    24    30    32   ar
    25    32    33   ar
    26     5     6    1
    27     6     7    1
    28     7     8    1
    29     7     9    1
    30    21    22   ar
    31    22    23   ar
    32    23    18   ar
    33     8     1    1
    34     9     3    1
    35    33    27   ar
    36    13    14    1
@<TRIPOS>MOLECULE
*****
 33 36 0 0 0
SMALL
GASTEIGER

@<TRIPOS>ATOM
      1 N         140.3832  142.9869  158.1817 N.3     1  UNL1       -0.2685
      2 C         138.9222  142.6749  158.3161 C.3     1  UNL1        0.1035
      3 C         138.4747  141.5413  159.1905 C.3     1  UNL1        0.1470
      4 C         138.0271  140.4077  160.0650 C.3     1  UNL1        0.1037
      5 N         139.0407  139.5861  160.8051 N.3     1  UNL1       -0.2647
      6 C         140.5017  139.8981  160.6707 C.3     1  UNL1        0.1037
      7 C         140.9492  141.0317  159.7962 C.3     1  UNL1        0.1470
      8 C         141.3967  142.1653  158.9218 C.3     1  UNL1        0.1035
      9 O         139.4882  140.7197  159.9306 O.3     1  UNL1       -0.3530
     10 C         140.8307  144.1205  157.3072 C.3     1  UNL1        0.0737
     11 C         141.0254  145.4877  157.8927 C.3     1  UNL1        0.0362
     12 C         141.1385  145.6581  159.3787 C.3     1  UNL1        0.0929
     13 N         139.9175  145.5409  160.2422 N.3     1  UNL1       -0.1793
     14 H         139.5531  146.4854  160.3666 H       1  UNL1        0.1488
     15 S         140.0215  144.9332  161.6096 S.O2    1  UNL1        0.0602
     16 O         141.4433  144.5458  161.3293 O.2     1  UNL1       -0.1530
     17 O         138.5998  145.3206  161.8899 O.2     1  UNL1       -0.1530
     18 C         140.3333  143.1102  165.7119 C.ar    1  UNL1        0.0685
     19 C         141.2593  142.6626  164.6200 C.ar    1  UNL1        0.0116
     20 C         141.1553  143.2703  163.2525 C.ar    1  UNL1        0.0206
     21 C         140.1255  144.3255  162.9771 C.ar    1  UNL1        0.1220
     22 C         139.1996  144.7730  164.0690 C.ar    1  UNL1        0.0206
     23 C         139.3035  144.1654  165.4364 C.ar    1  UNL1        0.0116
     24 N         140.5413  141.8948  168.4468 N.1     1  UNL1       -0.1908
     25 C         140.4373  142.5025  167.0794 C.1     1  UNL1        0.1004
     26 C         138.5932  138.4525  161.6795 C.3     1  UNL1        0.0993
     27 C         138.5428  138.6284  163.1684 C.ar    1  UNL1       -0.0060
     28 C         138.2502  139.9777  163.7547 C.ar    1  UNL1       -0.0006
     29 C         138.1999  140.1537  165.2434 C.ar    1  UNL1        0.0294
     30 C         138.4421  138.9804  166.1459 C.ar    1  UNL1        0.1401
     31 F         138.3917  139.1563  167.6347 F       1  UNL1       -0.2042
     32 C         138.7347  137.6310  165.5596 C.ar    1  UNL1        0.0294
     33 C         138.7851  137.4551  164.0709 C.ar    1  UNL1       -0.0006
@<TRIPOS>BOND
     1    24    25    3
     2    25    18    1
     3    18    19   ar
     4    19    20   ar
     5    20    21   ar
     6    21    15    1
     7    15    16    2
     8    15    17    2
     9    15    13    1
    10    13    12    1
    11    12    11    1
    12    11    10    1
    13    10     1    1
    14     1     2    1
    15     2     3    1
    16     3     4    1
    17     4     5    1
    18     5    26    1
    19    26    27    1
    20    27    28   ar
    21    28    29   ar
    22    29    30   ar
    23    30    31    1
    24    30    32   ar
    25    32    33   ar
    26     5     6    1
    27     6     7    1
    28     7     8    1
    29     7     9    1
    30    21    22   ar
    31    22    23   ar
    32    23    18   ar
    33     8     1    1
    34     9     3    1
    35    33    27   ar
    36    13    14    1
@<TRIPOS>MOLECULE
*****
 33 36 0 0 0
SMALL
GASTEIGER

@<TRIPOS>ATOM
      1 N         140.7255  140.2344  159.2157 N.3     1  UNL1       -0.2685
      2 C         141.4247  141.5555  159.3408 C.3     1  UNL1        0.1035
      3 C         141.3149  142.3448  160.6116 C.3     1  UNL1        0.1470
      4 C         141.2051  143.1341  161.8824 C.3     1  UNL1        0.1037
      5 N         140.3961  142.6022  163.0281 N.3     1  UNL1       -0.2647
      6 C         139.6969  141.2810  162.9030 C.3     1  UNL1        0.1037
      7 C         139.8067  140.4918  161.6322 C.3     1  UNL1        0.1470
      8 C         139.9165  139.7025  160.3614 C.3     1  UNL1        0.1035
      9 O         140.5059  141.8129  161.7573 O.3     1  UNL1       -0.3530
     10 C         140.8353  139.4450  157.9448 C.3     1  UNL1        0.0737
     11 C         142.0534  138.6096  157.6837 C.3     1  UNL1        0.0362
     12 C         142.8175  138.0184  158.8312 C.3     1  UNL1        0.0929
     13 N         143.7100  138.8885  159.6657 N.3     1  UNL1       -0.1793
     14 H         144.6699  138.6244  159.4437 H       1  UNL1        0.1488
     15 S         143.5905  138.8700  161.1607 S.O2    1  UNL1        0.0602
     16 O         144.3828  140.1412  161.2397 O.2     1  UNL1       -0.1530
     17 O         142.7983  137.5988  161.0818 O.2     1  UNL1       -0.1530
     18 C         143.2322  138.8146  165.6461 C.ar    1  UNL1        0.0685
     19 C         142.1331  138.2454  164.7988 C.ar    1  UNL1        0.0116
     20 C         142.2525  138.2639  163.3037 C.ar    1  UNL1        0.0206
     21 C         143.4711  138.8515  162.6559 C.ar    1  UNL1        0.1220
     22 C         144.5703  139.4206  163.5032 C.ar    1  UNL1        0.0206
     23 C         144.4508  139.4022  164.9983 C.ar    1  UNL1        0.0116
     24 N         142.9933  138.7775  168.6364 N.1     1  UNL1       -0.1908
     25 C         143.1128  138.7961  167.1413 C.1     1  UNL1        0.1004
     26 C         140.2863  143.3915  164.2989 C.3     1  UNL1        0.0993
     27 C         141.1240  143.0208  165.4868 C.ar    1  UNL1       -0.0060
     28 C         140.4768  142.8037  166.8225 C.ar    1  UNL1       -0.0006
     29 C         141.3144  142.4331  168.0103 C.ar    1  UNL1        0.0294
     30 C         142.7991  142.2795  167.8625 C.ar    1  UNL1        0.1401
     31 F         143.6368  141.9089  169.0504 F       1  UNL1       -0.2042
     32 C         143.4463  142.4966  166.5268 C.ar    1  UNL1        0.0294
     33 C         142.6087  142.8673  165.3390 C.ar    1  UNL1       -0.0006
@<TRIPOS>BOND
     1    24    25    3
     2    25    18    1
     3    18    19   ar
     4    19    20   ar
     5    20    21   ar
     6    21    15    1
     7    15    16    2
     8    15    17    2
     9    15    13    1
    10    13    12    1
    11    12    11    1
    12    11    10    1
    13    10     1    1
    14     1     2    1
    15     2     3    1
    16     3     4    1
    17     4     5    1
    18     5    26    1
    19    26    27    1
    20    27    28   ar
    21    28    29   ar
    22    29    30   ar
    23    30    31    1
    24    30    32   ar
    25    32    33   ar
    26     5     6    1
    27     6     7    1
    28     7     8    1
    29     7     9    1
    30    21    22   ar
    31    22    23   ar
    32    23    18   ar
    33     8     1    1
    34     9     3    1
    35    33    27   ar
    36    13    14    1
@<TRIPOS>MOLECULE
*****
 33 36 0 0 0
SMALL
GASTEIGER

@<TRIPOS>ATOM
      1 N         140.0017  142.6784  160.3234 N.3     1  UNL1       -0.2685
      2 C         139.5328  143.5516  161.4493 C.3     1  UNL1        0.1035
      3 C         140.3176  143.6149  162.7260 C.3     1  UNL1        0.1470
      4 C         141.1023  143.6783  164.0029 C.3     1  UNL1        0.1037
      5 N         142.3559  142.8685  164.1537 N.3     1  UNL1       -0.2647
      6 C         142.8247  141.9953  163.0277 C.3     1  UNL1        0.1037
      7 C         142.0400  141.9319  161.7509 C.3     1  UNL1        0.1470
      8 C         141.2553  141.8686  160.4742 C.3     1  UNL1        0.1035
      9 O         141.5711  142.8051  162.8769 O.3     1  UNL1       -0.3530
     10 C         139.2169  142.6151  159.0465 C.3     1  UNL1        0.0737
     11 C         138.4404  141.3783  158.7040 C.3     1  UNL1        0.0362
     12 C         137.8435  140.5410  159.7962 C.3     1  UNL1        0.0929
     13 N         138.6944  139.5466  160.5290 N.3     1  UNL1       -0.1793
     14 H         138.3448  138.6209  160.2816 H       1  UNL1        0.1488
     15 S         138.7797  139.5915  162.0259 S.O2    1  UNL1        0.0602
     16 O         137.8094  140.7352  162.0468 O.2     1  UNL1       -0.1530
     17 O         139.7499  138.4478  162.0049 O.2     1  UNL1       -0.1530
     18 C         139.0355  139.7262  166.5166 C.ar    1  UNL1        0.0685
     19 C         138.9379  138.4065  165.8102 C.ar    1  UNL1        0.0116
     20 C         138.8526  138.3616  164.3133 C.ar    1  UNL1        0.0206
     21 C         138.8650  139.6364  163.5228 C.ar    1  UNL1        0.1220
     22 C         138.9626  140.9560  164.2293 C.ar    1  UNL1        0.0206
     23 C         139.0479  141.0009  165.7261 C.ar    1  UNL1        0.0116
     24 N         139.2061  139.8159  169.5104 N.1     1  UNL1       -0.1908
     25 C         139.1208  139.7710  168.0135 C.1     1  UNL1        0.1004
     26 C         143.1406  142.9318  165.4305 C.3     1  UNL1        0.0993
     27 C         142.9908  141.8487  166.4574 C.ar    1  UNL1       -0.0060
     28 C         142.8900  140.4154  166.0265 C.ar    1  UNL1       -0.0006
     29 C         142.7403  139.3323  167.0533 C.ar    1  UNL1        0.0294
     30 C         142.6914  139.6824  168.5110 C.ar    1  UNL1        0.1401
     31 F         142.5417  138.5993  169.5380 F       1  UNL1       -0.2042
     32 C         142.7923  141.1157  168.9419 C.ar    1  UNL1        0.0294
     33 C         142.9420  142.1988  167.9151 C.ar    1  UNL1       -0.0006
@<TRIPOS>BOND
     1    24    25    3
     2    25    18    1
     3    18    19   ar
     4    19    20   ar
     5    20    21   ar
     6    21    15    1
     7    15    16    2
     8    15    17    2
     9    15    13    1
    10    13    12    1
    11    12    11    1
    12    11    10    1
    13    10     1    1
    14     1     2    1
    15     2     3    1
    16     3     4    1
    17     4     5    1
    18     5    26    1
    19    26    27    1
    20    27    28   ar
    21    28    29   ar
    22    29    30   ar
    23    30    31    1
    24    30    32   ar
    25    32    33   ar
    26     5     6    1
    27     6     7    1
    28     7     8    1
    29     7     9    1
    30    21    22   ar
    31    22    23   ar
    32    23    18   ar
    33     8     1    1
    34     9     3    1
    35    33    27   ar
    36    13    14    1
@<TRIPOS>MOLECULE
*****
 33 36 0 0 0
SMALL
GASTEIGER

@<TRIPOS>ATOM
      1 N         139.9139  139.3991  159.9681 N.3     1  UNL1       -0.2685
      2 C         139.4979  138.1082  160.6087 C.3     1  UNL1        0.1035
      3 C         139.1296  138.0769  162.0624 C.3     1  UNL1        0.1470
      4 C         138.7613  138.0456  163.5162 C.3     1  UNL1        0.1037
      5 N         138.8090  139.3052  164.3293 N.3     1  UNL1       -0.2647
      6 C         139.2249  140.5962  163.6885 C.3     1  UNL1        0.1037
      7 C         139.5932  140.6274  162.2348 C.3     1  UNL1        0.1470
      8 C         139.9615  140.6587  160.7811 C.3     1  UNL1        0.1035
      9 O         139.1773  139.3365  162.8755 O.3     1  UNL1       -0.3530
     10 C         140.2822  139.4304  158.5143 C.3     1  UNL1        0.0737
     11 C         141.7243  139.4983  158.1072 C.3     1  UNL1        0.0362
     12 C         142.7131  138.5296  158.6852 C.3     1  UNL1        0.0929
     13 N         143.8302  139.0268  159.5540 N.3     1  UNL1       -0.1793
     14 H         144.6467  138.4539  159.3404 H       1  UNL1        0.1488
     15 S         143.6778  139.0244  161.0462 S.O2    1  UNL1        0.0602
     16 O         143.8480  137.5342  161.0611 O.2     1  UNL1       -0.1530
     17 O         143.5075  140.5146  161.0312 O.2     1  UNL1       -0.1530
     18 C         143.2203  139.0171  165.5228 C.ar    1  UNL1        0.0685
     19 C         144.2955  139.8423  164.8801 C.ar    1  UNL1        0.0116
     20 C         144.4479  139.8447  163.3879 C.ar    1  UNL1        0.0206
     21 C         143.5253  139.0220  162.5384 C.ar    1  UNL1        0.1220
     22 C         142.4502  138.1967  163.1812 C.ar    1  UNL1        0.0206
     23 C         142.2977  138.1943  164.6733 C.ar    1  UNL1        0.0116
     24 N         142.9154  139.0122  168.5073 N.1     1  UNL1       -0.1908
     25 C         143.0679  139.0147  167.0151 C.1     1  UNL1        0.1004
     26 C         138.4407  139.2739  165.7830 C.3     1  UNL1        0.0993
     27 C         139.1925  140.1221  166.7656 C.ar    1  UNL1       -0.0060
     28 C         139.0545  139.8660  168.2371 C.ar    1  UNL1       -0.0006
     29 C         139.8063  140.7140  169.2198 C.ar    1  UNL1        0.0294
     30 C         140.6960  141.8182  168.7308 C.ar    1  UNL1        0.1401
     31 F         141.4479  142.6664  169.7135 F       1  UNL1       -0.2042
     32 C         140.8340  142.0743  167.2593 C.ar    1  UNL1        0.0294
     33 C         140.0822  141.2262  166.2767 C.ar    1  UNL1       -0.0006
@<TRIPOS>BOND
     1    24    25    3
     2    25    18    1
     3    18    19   ar
     4    19    20   ar
     5    20    21   ar
     6    21    15    1
     7    15    16    2
     8    15    17    2
     9    15    13    1
    10    13    12    1
    11    12    11    1
    12    11    10    1
    13    10     1    1
    14     1     2    1
    15     2     3    1
    16     3     4    1
    17     4     5    1
    18     5    26    1
    19    26    27    1
    20    27    28   ar
    21    28    29   ar
    22    29    30   ar
    23    30    31    1
    24    30    32   ar
    25    32    33   ar
    26     5     6    1
    27     6     7    1
    28     7     8    1
    29     7     9    1
    30    21    22   ar
    31    22    23   ar
    32    23    18   ar
    33     8     1    1
    34     9     3    1
    35    33    27   ar
    36    13    14    1
