@<TRIPOS>MOLECULE
*****
 26 29 0 0 0
SMALL
GASTEIGER

@<TRIPOS>ATOM
      1 O         140.8156  141.5965  161.9810 O.2     1  UNL1       -0.2523
      2 C         139.9283  142.7323  162.3965 C.2     1  UNL1        0.3076
      3 N         140.3467  144.1633  162.5610 N.am    1  UNL1       -0.2609
      4 C         139.1437  144.9520  162.9866 C.3     1  UNL1        0.1165
      5 C         137.9819  144.0083  163.0850 C.3     1  UNL1        0.1168
      6 N         138.4668  142.6364  162.7203 N.am    1  UNL1       -0.2581
      7 C         141.7258  144.7098  162.3390 C.3     1  UNL1        0.1123
      8 C         142.7913  144.4999  163.3736 C.3     1  UNL1        0.0944
      9 N         142.9050  143.1793  164.0759 N.3     1  UNL1       -0.2637
     10 C         142.1480  142.7651  165.3028 C.3     1  UNL1        0.0992
     11 C         142.5709  141.3708  165.6597 C.ar    1  UNL1       -0.0088
     12 C         142.1602  140.4509  166.7710 C.ar    1  UNL1       -0.0032
     13 C         142.7678  139.0836  166.8759 C.ar    1  UNL1       -0.0003
     14 C         143.7862  138.6362  165.8696 C.ar    1  UNL1       -0.0003
     15 C         144.1969  139.5561  164.7583 C.ar    1  UNL1       -0.0032
     16 C         143.5893  140.9234  164.6534 C.ar    1  UNL1       -0.0088
     17 C         143.7958  142.0411  163.6745 C.3     1  UNL1        0.0992
     18 C         137.6361  141.3880  162.6856 C.3     1  UNL1        0.1226
     19 C         138.0476  140.1907  163.4899 C.ar    1  UNL1        0.0091
     20 C         138.1204  140.2806  164.9853 C.ar    1  UNL1        0.0096
     21 C         138.5320  139.0832  165.7897 C.ar    1  UNL1        0.0575
     22 CL        138.6047  139.1732  167.2851 Cl      1  UNL1       -0.0823
     23 C         138.8707  137.7959  165.0984 C.ar    1  UNL1        0.0122
     24 C         138.7980  137.7058  163.6028 C.ar    1  UNL1        0.0120
     25 C         138.3864  138.9033  162.7986 C.ar    1  UNL1        0.0553
     26 CL        138.3137  138.8133  161.3030 Cl      1  UNL1       -0.0825
@<TRIPOS>BOND
     1     1     2    2
     2     2     3   am
     3     3     7    1
     4     7     8    1
     5     8     9    1
     6     9    10    1
     7    10    11    1
     8    11    12   ar
     9    12    13   ar
    10    13    14   ar
    11    14    15   ar
    12    15    16   ar
    13    16    17    1
    14     3     4    1
    15     4     5    1
    16     5     6    1
    17     6    18    1
    18    18    19    1
    19    19    20   ar
    20    20    21   ar
    21    21    22    1
    22    21    23   ar
    23    23    24   ar
    24    24    25   ar
    25    25    26    1
    26     6     2   am
    27    25    19   ar
    28    17     9    1
    29    16    11   ar
@<TRIPOS>MOLECULE
*****
 26 29 0 0 0
SMALL
GASTEIGER

@<TRIPOS>ATOM
      1 O         140.5582  143.6680  165.5605 O.2     1  UNL1       -0.2523
      2 C         141.1013  144.0448  164.2140 C.2     1  UNL1        0.3076
      3 N         140.3102  144.6061  163.0698 N.am    1  UNL1       -0.2609
      4 C         141.2509  144.8347  161.9239 C.3     1  UNL1        0.1165
      5 C         142.6233  144.4146  162.3599 C.3     1  UNL1        0.1168
      6 N         142.5308  143.9265  163.7753 N.am    1  UNL1       -0.2581
      7 C         138.8372  144.8892  163.0712 C.3     1  UNL1        0.1123
      8 C         137.8646  143.8043  162.7146 C.3     1  UNL1        0.0944
      9 N         138.0822  142.4074  163.2159 N.3     1  UNL1       -0.2637
     10 C         138.4969  141.2279  162.3873 C.3     1  UNL1        0.0992
     11 C         138.5943  140.0363  163.2931 C.ar    1  UNL1       -0.0088
     12 C         138.9600  138.6050  163.0330 C.ar    1  UNL1       -0.0032
     13 C         138.9711  137.6168  164.1614 C.ar    1  UNL1       -0.0003
     14 C         138.6166  138.0599  165.5500 C.ar    1  UNL1       -0.0003
     15 C         138.2509  139.4912  165.8101 C.ar    1  UNL1       -0.0032
     16 C         138.2398  140.4794  164.6816 C.ar    1  UNL1       -0.0088
     17 C         137.9233  141.9448  164.6339 C.3     1  UNL1        0.0992
     18 C         143.6682  143.4106  164.6059 C.3     1  UNL1        0.1226
     19 C         143.8249  141.9357  164.8297 C.ar    1  UNL1        0.0091
     20 C         142.9281  141.2248  165.7994 C.ar    1  UNL1        0.0096
     21 C         143.0848  139.7499  166.0232 C.ar    1  UNL1        0.0575
     22 CL        142.1880  139.0390  166.9929 Cl      1  UNL1       -0.0823
     23 C         144.1382  138.9859  165.2772 C.ar    1  UNL1        0.0122
     24 C         145.0351  139.6967  164.3075 C.ar    1  UNL1        0.0120
     25 C         144.8784  141.1717  164.0837 C.ar    1  UNL1        0.0553
     26 CL        145.7752  141.8826  163.1140 Cl      1  UNL1       -0.0825
@<TRIPOS>BOND
     1     1     2    2
     2     2     3   am
     3     3     7    1
     4     7     8    1
     5     8     9    1
     6     9    10    1
     7    10    11    1
     8    11    12   ar
     9    12    13   ar
    10    13    14   ar
    11    14    15   ar
    12    15    16   ar
    13    16    17    1
    14     3     4    1
    15     4     5    1
    16     5     6    1
    17     6    18    1
    18    18    19    1
    19    19    20   ar
    20    20    21   ar
    21    21    22    1
    22    21    23   ar
    23    23    24   ar
    24    24    25   ar
    25    25    26    1
    26     6     2   am
    27    25    19   ar
    28    17     9    1
    29    16    11   ar
@<TRIPOS>MOLECULE
*****
 26 29 0 0 0
SMALL
GASTEIGER

@<TRIPOS>ATOM
      1 O         142.2041  137.9425  165.3211 O.2     1  UNL1       -0.2523
      2 C         141.4460  137.9214  164.0269 C.2     1  UNL1        0.3076
      3 N         139.9666  137.7263  163.8748 N.am    1  UNL1       -0.2609
      4 C         139.6405  137.7760  162.4114 C.3     1  UNL1        0.1165
      5 C         140.9185  138.0018  161.6593 C.3     1  UNL1        0.1168
      6 N         142.0344  138.0917  162.6577 N.am    1  UNL1       -0.2581
      7 C         138.9854  137.5180  164.9901 C.3     1  UNL1        0.1123
      8 C         138.6483  138.6507  165.9138 C.3     1  UNL1        0.0944
      9 N         138.6631  140.0621  165.4063 N.3     1  UNL1       -0.2637
     10 C         137.8801  140.5880  164.2399 C.3     1  UNL1        0.0992
     11 C         138.1966  142.0464  164.0888 C.ar    1  UNL1       -0.0088
     12 C         137.7201  143.0809  163.1127 C.ar    1  UNL1       -0.0032
     13 C         138.2222  144.4910  163.2097 C.ar    1  UNL1       -0.0003
     14 C         139.2008  144.8666  164.2827 C.ar    1  UNL1       -0.0003
     15 C         139.6772  143.8321  165.2588 C.ar    1  UNL1       -0.0032
     16 C         139.1752  142.4220  165.1618 C.ar    1  UNL1       -0.0088
     17 C         139.4635  141.1956  165.9760 C.3     1  UNL1        0.0992
     18 C         143.4839  138.3131  162.3422 C.3     1  UNL1        0.1226
     19 C         144.0254  139.7084  162.2431 C.ar    1  UNL1        0.0091
     20 C         143.7232  140.5461  161.0361 C.ar    1  UNL1        0.0096
     21 C         144.2647  141.9415  160.9369 C.ar    1  UNL1        0.0575
     22 CL        143.9625  142.7792  159.7300 Cl      1  UNL1       -0.0823
     23 C         145.1083  142.4990  162.0448 C.ar    1  UNL1        0.0122
     24 C         145.4106  141.6614  163.2518 C.ar    1  UNL1        0.0120
     25 C         144.8690  140.2659  163.3509 C.ar    1  UNL1        0.0553
     26 CL        145.1712  139.4282  164.5579 Cl      1  UNL1       -0.0825
@<TRIPOS>BOND
     1     1     2    2
     2     2     3   am
     3     3     7    1
     4     7     8    1
     5     8     9    1
     6     9    10    1
     7    10    11    1
     8    11    12   ar
     9    12    13   ar
    10    13    14   ar
    11    14    15   ar
    12    15    16   ar
    13    16    17    1
    14     3     4    1
    15     4     5    1
    16     5     6    1
    17     6    18    1
    18    18    19    1
    19    19    20   ar
    20    20    21   ar
    21    21    22    1
    22    21    23   ar
    23    23    24   ar
    24    24    25   ar
    25    25    26    1
    26     6     2   am
    27    25    19   ar
    28    17     9    1
    29    16    11   ar
@<TRIPOS>MOLECULE
*****
 26 29 0 0 0
SMALL
GASTEIGER

@<TRIPOS>ATOM
      1 O         138.6772  142.8973  160.3688 O.2     1  UNL1       -0.2523
      2 C         138.5913  143.4199  161.7722 C.2     1  UNL1        0.3076
      3 N         139.1268  144.7342  162.2579 N.am    1  UNL1       -0.2609
      4 C         138.8212  144.8466  163.7222 C.3     1  UNL1        0.1165
      5 C         138.0968  143.6017  164.1413 C.3     1  UNL1        0.1168
      6 N         137.9547  142.7200  162.9362 N.am    1  UNL1       -0.2581
      7 C         139.8422  145.7566  161.4256 C.3     1  UNL1        0.1123
      8 C         141.1401  145.4069  160.7600 C.3     1  UNL1        0.0944
      9 N         142.1632  144.5912  161.4934 N.3     1  UNL1       -0.2637
     10 C         142.5625  144.7616  162.9292 C.3     1  UNL1        0.0992
     11 C         143.6127  143.7376  163.2430 C.ar    1  UNL1       -0.0088
     12 C         144.3737  143.4328  164.4991 C.ar    1  UNL1       -0.0032
     13 C         145.3846  142.3248  164.5134 C.ar    1  UNL1       -0.0003
     14 C         145.6345  141.5215  163.2715 C.ar    1  UNL1       -0.0003
     15 C         144.8734  141.8262  162.0154 C.ar    1  UNL1       -0.0032
     16 C         143.8625  142.9343  162.0012 C.ar    1  UNL1       -0.0088
     17 C         142.9667  143.4618  160.9199 C.3     1  UNL1        0.0992
     18 C         137.2924  141.3746  162.9012 C.3     1  UNL1        0.1226
     19 C         137.8914  140.2240  163.6544 C.ar    1  UNL1        0.0091
     20 C         138.1033  140.3263  165.1357 C.ar    1  UNL1        0.0096
     21 C         138.7022  139.1757  165.8890 C.ar    1  UNL1        0.0575
     22 CL        138.9141  139.2779  167.3704 Cl      1  UNL1       -0.0823
     23 C         139.0892  137.9227  165.1607 C.ar    1  UNL1        0.0122
     24 C         138.8774  137.8204  163.6793 C.ar    1  UNL1        0.0120
     25 C         138.2784  138.9711  162.9261 C.ar    1  UNL1        0.0553
     26 CL        138.0665  138.8688  161.4447 Cl      1  UNL1       -0.0825
@<TRIPOS>BOND
     1     1     2    2
     2     2     3   am
     3     3     7    1
     4     7     8    1
     5     8     9    1
     6     9    10    1
     7    10    11    1
     8    11    12   ar
     9    12    13   ar
    10    13    14   ar
    11    14    15   ar
    12    15    16   ar
    13    16    17    1
    14     3     4    1
    15     4     5    1
    16     5     6    1
    17     6    18    1
    18    18    19    1
    19    19    20   ar
    20    20    21   ar
    21    21    22    1
    22    21    23   ar
    23    23    24   ar
    24    24    25   ar
    25    25    26    1
    26     6     2   am
    27    25    19   ar
    28    17     9    1
    29    16    11   ar
@<TRIPOS>MOLECULE
*****
 26 29 0 0 0
SMALL
GASTEIGER

@<TRIPOS>ATOM
      1 O         143.6806  142.4089  165.9688 O.2     1  UNL1       -0.2523
      2 C         143.9509  141.3907  164.9009 C.2     1  UNL1        0.3076
      3 N         144.4530  141.6768  163.5167 N.am    1  UNL1       -0.2609
      4 C         144.5790  140.3706  162.7901 C.3     1  UNL1        0.1165
      5 C         144.1547  139.2772  163.7253 C.3     1  UNL1        0.1168
      6 N         143.7665  139.9077  165.0298 N.am    1  UNL1       -0.2581
      7 C         144.7730  143.0314  162.9573 C.3     1  UNL1        0.1123
      8 C         143.6859  143.8683  162.3511 C.3     1  UNL1        0.0944
      9 N         142.2856  143.7776  162.8811 N.3     1  UNL1       -0.2637
     10 C         141.6168  144.7747  163.7803 C.3     1  UNL1        0.0992
     11 C         140.2261  144.2872  164.0599 C.ar    1  UNL1       -0.0088
     12 C         139.1088  144.8578  164.8821 C.ar    1  UNL1       -0.0032
     13 C         137.8008  144.1300  164.9779 C.ar    1  UNL1       -0.0003
     14 C         137.6099  142.8316  164.2514 C.ar    1  UNL1       -0.0003
     15 C         138.7272  142.2610  163.4292 C.ar    1  UNL1       -0.0032
     16 C         140.0353  142.9888  163.3335 C.ar    1  UNL1       -0.0088
     17 C         141.3081  142.6739  162.6049 C.3     1  UNL1        0.0992
     18 C         143.2795  139.1824  166.2491 C.3     1  UNL1        0.1226
     19 C         141.8971  139.4383  166.7718 C.ar    1  UNL1        0.0091
     20 C         140.7092  139.2461  165.8764 C.ar    1  UNL1        0.0096
     21 C         139.3266  139.5020  166.3991 C.ar    1  UNL1        0.0575
     22 CL        138.1388  139.3098  165.5036 Cl      1  UNL1       -0.0823
     23 C         139.1321  139.9501  167.8173 C.ar    1  UNL1        0.0122
     24 C         140.3200  140.1424  168.7128 C.ar    1  UNL1        0.0120
     25 C         141.7025  139.8864  168.1901 C.ar    1  UNL1        0.0553
     26 CL        142.8905  140.0787  169.0856 Cl      1  UNL1       -0.0825
@<TRIPOS>BOND
     1     1     2    2
     2     2     3   am
     3     3     7    1
     4     7     8    1
     5     8     9    1
     6     9    10    1
     7    10    11    1
     8    11    12   ar
     9    12    13   ar
    10    13    14   ar
    11    14    15   ar
    12    15    16   ar
    13    16    17    1
    14     3     4    1
    15     4     5    1
    16     5     6    1
    17     6    18    1
    18    18    19    1
    19    19    20   ar
    20    20    21   ar
    21    21    22    1
    22    21    23   ar
    23    23    24   ar
    24    24    25   ar
    25    25    26    1
    26     6     2   am
    27    25    19   ar
    28    17     9    1
    29    16    11   ar
@<TRIPOS>MOLECULE
*****
 26 29 0 0 0
SMALL
GASTEIGER

@<TRIPOS>ATOM
      1 O         143.3275  143.2190  164.8009 O.2     1  UNL1       -0.2523
      2 C         143.4883  142.6289  163.4313 C.2     1  UNL1        0.3076
      3 N         144.3421  141.4483  163.0745 N.am    1  UNL1       -0.2609
      4 C         144.2049  141.2056  161.6006 C.3     1  UNL1        0.1165
      5 C         143.2663  142.2362  161.0465 C.3     1  UNL1        0.1168
      6 N         142.8234  143.1158  162.1779 N.am    1  UNL1       -0.2581
      7 C         145.1850  140.6505  164.0248 C.3     1  UNL1        0.1123
      8 C         144.6853  139.3371  164.5493 C.3     1  UNL1        0.0944
      9 N         143.2491  139.1895  164.9563 N.3     1  UNL1       -0.2637
     10 C         142.2456  138.2671  164.3302 C.3     1  UNL1        0.0992
     11 C         140.9406  138.4459  165.0477 C.ar    1  UNL1       -0.0088
     12 C         139.5984  137.8016  164.8654 C.ar    1  UNL1       -0.0032
     13 C         138.4531  138.1903  165.7526 C.ar    1  UNL1       -0.0003
     14 C         138.6501  139.2233  166.8222 C.ar    1  UNL1       -0.0003
     15 C         139.9923  139.8676  167.0046 C.ar    1  UNL1       -0.0032
     16 C         141.1375  139.4789  166.1174 C.ar    1  UNL1       -0.0088
     17 C         142.5643  139.9385  166.0608 C.3     1  UNL1        0.0992
     18 C         141.8811  144.2782  162.0742 C.3     1  UNL1        0.1226
     19 C         140.4910  144.1686  162.6269 C.ar    1  UNL1        0.0091
     20 C         140.1770  144.7272  163.9831 C.ar    1  UNL1        0.0096
     21 C         138.7869  144.6176  164.5359 C.ar    1  UNL1        0.0575
     22 CL        138.4728  145.1762  165.8921 Cl      1  UNL1       -0.0823
     23 C         137.7109  143.9493  163.7325 C.ar    1  UNL1        0.0122
     24 C         138.0248  143.3906  162.3763 C.ar    1  UNL1        0.0120
     25 C         139.4150  143.5003  161.8235 C.ar    1  UNL1        0.0553
     26 CL        139.7291  142.9416  160.4673 Cl      1  UNL1       -0.0825
@<TRIPOS>BOND
     1     1     2    2
     2     2     3   am
     3     3     7    1
     4     7     8    1
     5     8     9    1
     6     9    10    1
     7    10    11    1
     8    11    12   ar
     9    12    13   ar
    10    13    14   ar
    11    14    15   ar
    12    15    16   ar
    13    16    17    1
    14     3     4    1
    15     4     5    1
    16     5     6    1
    17     6    18    1
    18    18    19    1
    19    19    20   ar
    20    20    21   ar
    21    21    22    1
    22    21    23   ar
    23    23    24   ar
    24    24    25   ar
    25    25    26    1
    26     6     2   am
    27    25    19   ar
    28    17     9    1
    29    16    11   ar
@<TRIPOS>MOLECULE
*****
 26 29 0 0 0
SMALL
GASTEIGER

@<TRIPOS>ATOM
      1 O         142.0989  140.8164  162.0336 O.2     1  UNL1       -0.2523
      2 C         143.3214  140.6133  162.8788 C.2     1  UNL1        0.3076
      3 N         144.5356  141.4938  162.8990 N.am    1  UNL1       -0.2609
      4 C         145.5089  140.9187  163.8849 C.3     1  UNL1        0.1165
      5 C         144.8961  139.6827  164.4740 C.3     1  UNL1        0.1168
      6 N         143.5442  139.4940  163.8522 N.am    1  UNL1       -0.2581
      7 C         144.7405  142.7320  162.0775 C.3     1  UNL1        0.1123
      8 C         144.1312  144.0312  162.5143 C.3     1  UNL1        0.0944
      9 N         142.6857  144.0857  162.9113 N.3     1  UNL1       -0.2637
     10 C         142.1461  143.9191  164.3009 C.3     1  UNL1        0.0992
     11 C         140.6529  144.0467  164.2369 C.ar    1  UNL1       -0.0088
     12 C         139.5928  143.9712  165.2953 C.ar    1  UNL1       -0.0032
     13 C         138.1494  144.1411  164.9245 C.ar    1  UNL1       -0.0003
     14 C         137.7660  144.3866  163.4952 C.ar    1  UNL1       -0.0003
     15 C         138.8262  144.4621  162.4368 C.ar    1  UNL1       -0.0032
     16 C         140.2696  144.2922  162.8076 C.ar    1  UNL1       -0.0088
     17 C         141.5259  144.3163  161.9884 C.3     1  UNL1        0.0992
     18 C         142.5838  138.3813  164.1513 C.3     1  UNL1        0.1226
     19 C         141.2566  138.6851  164.7807 C.ar    1  UNL1        0.0091
     20 C         141.1949  139.4543  166.0669 C.ar    1  UNL1        0.0096
     21 C         139.8677  139.7581  166.6964 C.ar    1  UNL1        0.0575
     22 CL        139.8061  140.5274  167.9826 Cl      1  UNL1       -0.0823
     23 C         138.6021  139.2925  166.0396 C.ar    1  UNL1        0.0122
     24 C         138.6636  138.5232  164.7534 C.ar    1  UNL1        0.0120
     25 C         139.9909  138.2195  164.1239 C.ar    1  UNL1        0.0553
     26 CL        140.0525  137.4501  162.8377 Cl      1  UNL1       -0.0825
@<TRIPOS>BOND
     1     1     2    2
     2     2     3   am
     3     3     7    1
     4     7     8    1
     5     8     9    1
     6     9    10    1
     7    10    11    1
     8    11    12   ar
     9    12    13   ar
    10    13    14   ar
    11    14    15   ar
    12    15    16   ar
    13    16    17    1
    14     3     4    1
    15     4     5    1
    16     5     6    1
    17     6    18    1
    18    18    19    1
    19    19    20   ar
    20    20    21   ar
    21    21    22    1
    22    21    23   ar
    23    23    24   ar
    24    24    25   ar
    25    25    26    1
    26     6     2   am
    27    25    19   ar
    28    17     9    1
    29    16    11   ar
@<TRIPOS>MOLECULE
*****
 26 29 0 0 0
SMALL
GASTEIGER

@<TRIPOS>ATOM
      1 O         142.8359  141.0458  160.9138 O.2     1  UNL1       -0.2523
      2 C         143.7990  140.9111  162.0559 C.2     1  UNL1        0.3076
      3 N         144.6874  141.9940  162.5924 N.am    1  UNL1       -0.2609
      4 C         145.4803  141.4219  163.7301 C.3     1  UNL1        0.1165
      5 C         145.0817  139.9854  163.8966 C.3     1  UNL1        0.1168
      6 N         144.0427  139.6697  162.8618 N.am    1  UNL1       -0.2581
      7 C         144.7688  143.4018  162.0811 C.3     1  UNL1        0.1123
      8 C         144.0519  144.5043  162.8025 C.3     1  UNL1        0.0944
      9 N         142.5893  144.3733  163.1087 N.3     1  UNL1       -0.2637
     10 C         141.9991  143.8526  164.3856 C.3     1  UNL1        0.0992
     11 C         140.5052  143.8974  164.2580 C.ar    1  UNL1       -0.0088
     12 C         139.4052  143.5097  165.2011 C.ar    1  UNL1       -0.0032
     13 C         137.9721  143.6704  164.7884 C.ar    1  UNL1       -0.0003
     14 C         137.6390  144.2188  163.4325 C.ar    1  UNL1       -0.0003
     15 C         138.7390  144.6065  162.4894 C.ar    1  UNL1       -0.0032
     16 C         140.1721  144.4458  162.9021 C.ar    1  UNL1       -0.0088
     17 C         141.4602  144.7399  162.1919 C.3     1  UNL1        0.0992
     18 C         143.3661  138.3452  162.6673 C.3     1  UNL1        0.1226
     19 C         141.9350  138.1663  163.0795 C.ar    1  UNL1        0.0091
     20 C         140.8491  138.1810  162.0449 C.ar    1  UNL1        0.0096
     21 C         139.4180  138.0021  162.4570 C.ar    1  UNL1        0.0575
     22 CL        138.3321  138.0168  161.4224 Cl      1  UNL1       -0.0823
     23 C         139.0728  137.8084  163.9039 C.ar    1  UNL1        0.0122
     24 C         140.1587  137.7937  164.9386 C.ar    1  UNL1        0.0120
     25 C         141.5899  137.9726  164.5263 C.ar    1  UNL1        0.0553
     26 CL        142.6758  137.9579  165.5610 Cl      1  UNL1       -0.0825
@<TRIPOS>BOND
     1     1     2    2
     2     2     3   am
     3     3     7    1
     4     7     8    1
     5     8     9    1
     6     9    10    1
     7    10    11    1
     8    11    12   ar
     9    12    13   ar
    10    13    14   ar
    11    14    15   ar
    12    15    16   ar
    13    16    17    1
    14     3     4    1
    15     4     5    1
    16     5     6    1
    17     6    18    1
    18    18    19    1
    19    19    20   ar
    20    20    21   ar
    21    21    22    1
    22    21    23   ar
    23    23    24   ar
    24    24    25   ar
    25    25    26    1
    26     6     2   am
    27    25    19   ar
    28    17     9    1
    29    16    11   ar
@<TRIPOS>MOLECULE
*****
 26 29 0 0 0
SMALL
GASTEIGER

@<TRIPOS>ATOM
      1 O         141.5343  143.9924  164.4839 O.2     1  UNL1       -0.2523
      2 C         141.3392  144.2572  163.0204 C.2     1  UNL1        0.3076
      3 N         140.0684  144.7169  162.3693 N.am    1  UNL1       -0.2609
      4 C         140.3244  144.8525  160.8975 C.3     1  UNL1        0.1165
      5 C         141.7534  144.4767  160.6391 C.3     1  UNL1        0.1168
      6 N         142.3806  144.1087  161.9511 N.am    1  UNL1       -0.2581
      7 C         138.7697  144.9925  163.0674 C.3     1  UNL1        0.1123
      8 C         137.6552  143.9909  163.0009 C.3     1  UNL1        0.0944
      9 N         137.9225  142.5493  163.3176 N.3     1  UNL1       -0.2637
     10 C         138.0959  141.9651  164.6882 C.3     1  UNL1        0.0992
     11 C         138.3439  140.4935  164.5369 C.ar    1  UNL1       -0.0088
     12 C         138.5855  139.4077  165.5432 C.ar    1  UNL1       -0.0032
     13 C         138.8069  137.9966  165.0853 C.ar    1  UNL1       -0.0003
     14 C         138.7867  137.6712  163.6211 C.ar    1  UNL1       -0.0003
     15 C         138.5451  138.7570  162.6149 C.ar    1  UNL1       -0.0032
     16 C         138.3237  140.1681  163.0727 C.ar    1  UNL1       -0.0088
     17 C         138.0633  141.4387  162.3192 C.3     1  UNL1        0.0992
     18 C         143.7998  143.6695  162.1574 C.3     1  UNL1        0.1226
     19 C         144.0948  142.2624  162.5852 C.ar    1  UNL1        0.0091
     20 C         143.9242  141.1319  161.6143 C.ar    1  UNL1        0.0096
     21 C         144.2191  139.7248  162.0420 C.ar    1  UNL1        0.0575
     22 CL        144.0485  138.5943  161.0710 Cl      1  UNL1       -0.0823
     23 C         144.6848  139.4482  163.4408 C.ar    1  UNL1        0.0122
     24 C         144.8554  140.5786  164.4119 C.ar    1  UNL1        0.0120
     25 C         144.5604  141.9858  163.9840 C.ar    1  UNL1        0.0553
     26 CL        144.7311  143.1163  164.9550 Cl      1  UNL1       -0.0825
@<TRIPOS>BOND
     1     1     2    2
     2     2     3   am
     3     3     7    1
     4     7     8    1
     5     8     9    1
     6     9    10    1
     7    10    11    1
     8    11    12   ar
     9    12    13   ar
    10    13    14   ar
    11    14    15   ar
    12    15    16   ar
    13    16    17    1
    14     3     4    1
    15     4     5    1
    16     5     6    1
    17     6    18    1
    18    18    19    1
    19    19    20   ar
    20    20    21   ar
    21    21    22    1
    22    21    23   ar
    23    23    24   ar
    24    24    25   ar
    25    25    26    1
    26     6     2   am
    27    25    19   ar
    28    17     9    1
    29    16    11   ar
