@<TRIPOS>MOLECULE
*****
 29 33 0 0 0
SMALL
GASTEIGER

@<TRIPOS>ATOM
      1 C         140.9542  144.0628  161.0357 C.2     1  UNL1        0.0617
      2 C         140.6183  145.4022  160.4499 C.2     1  UNL1        0.0525
      3 C         139.5822  146.2680  161.1031 C.2     1  UNL1        0.2357
      4 N         138.8820  145.7945  162.3422 N.2     1  UNL1       -0.0303
      5 C         139.2178  144.4551  162.9281 C.2     1  UNL1        0.4092
      6 N         138.6976  143.7272  164.1320 N.2     1  UNL1        0.0120
      7 C         139.4122  142.4115  164.2229 C.2     1  UNL1        0.3751
      8 N         140.3741  142.3262  163.0751 N.2     1  UNL1       -0.0464
      9 C         140.2539  143.5893  162.2748 C.3     1  UNL1        0.3487
     10 C         139.2018  141.3648  165.2766 C.ar    1  UNL1        0.0896
     11 C         138.2910  140.2034  165.0087 C.ar    1  UNL1        0.0078
     12 C         138.0806  139.1567  166.0624 C.ar    1  UNL1        0.0017
     13 C         138.7810  139.2714  167.3838 C.ar    1  UNL1        0.0172
     14 C         139.6918  140.4327  167.6516 C.ar    1  UNL1        0.0602
     15 C         139.9022  141.4794  166.5980 C.ar    1  UNL1        0.0247
     16 C         140.8520  142.5036  167.1451 C.ar    1  UNL1        0.0203
     17 C         141.2285  142.0898  168.5368 C.ar    1  UNL1        0.0760
     18 N         140.5115  140.8100  168.8499 N.ar    1  UNL1       -0.3240
     19 C         140.5989  140.0422  170.1356 C.3     1  UNL1        0.1305
     20 C         143.2418  141.2530  159.6437 C.ar    1  UNL1        0.0733
     21 C         142.0444  141.6986  160.4297 C.ar    1  UNL1        0.0364
     22 C         141.9903  143.1969  160.3824 C.ar    1  UNL1        0.1029
     23 N         143.1543  143.6773  159.5673 N.ar    1  UNL1       -0.1697
     24 N         143.9277  142.4759  159.1108 N.ar    1  UNL1       -0.2515
     25 C         145.1692  142.4942  158.2690 C.3     1  UNL1        0.1534
     26 C         143.6768  139.8337  159.4285 C.3     1  UNL1        0.1184
     27 C         143.0146  137.4972  160.3517 C.3     1  UNL1        0.0900
     28 N         143.6221  138.8525  160.5617 N.3     1  UNL1       -0.2652
     29 C         144.1750  139.2265  161.9051 C.3     1  UNL1        0.0900
@<TRIPOS>BOND
     1    27    28    1
     2    28    29    1
     3    28    26    1
     4    26    20    1
     5    20    21   ar
     6    21    22   ar
     7    22     1    1
     8     1     2    2
     9     2     3    1
    10     3     4    2
    11     4     5    1
    12     5     6    2
    13     6     7    1
    14     7    10    1
    15    10    11   ar
    16    11    12   ar
    17    12    13   ar
    18    13    14   ar
    19    14    15   ar
    20    15    16   ar
    21    16    17   ar
    22    17    18   ar
    23    18    19    1
    24     7     8    2
    25     8     9    1
    26    22    23   ar
    27    23    24   ar
    28    24    25    1
    29    24    20   ar
    30     9     1    1
    31     9     5    1
    32    15    10   ar
    33    18    14   ar
@<TRIPOS>MOLECULE
*****
 29 33 0 0 0
SMALL
GASTEIGER

@<TRIPOS>ATOM
      1 C         142.3312  138.3364  157.8323 C.2     1  UNL1        0.0617
      2 C         142.5667  139.6184  157.0899 C.2     1  UNL1        0.0525
      3 C         143.3323  139.6083  155.8001 C.2     1  UNL1        0.2357
      4 N         143.8623  138.3163  155.2526 N.2     1  UNL1       -0.0303
      5 C         143.6268  137.0344  155.9949 C.2     1  UNL1        0.4092
      6 N         144.0251  135.6179  155.7034 N.2     1  UNL1        0.0120
      7 C         143.5057  134.7526  156.8130 C.2     1  UNL1        0.3751
      8 N         142.7864  135.6342  157.7904 N.2     1  UNL1       -0.0464
      9 C         142.8613  137.0444  157.2848 C.3     1  UNL1        0.3487
     10 C         143.6758  133.2664  156.9255 C.ar    1  UNL1        0.0896
     11 C         144.7850  132.6996  157.7613 C.ar    1  UNL1        0.0078
     12 C         144.9551  131.2136  157.8739 C.ar    1  UNL1        0.0017
     13 C         144.0161  130.2944  157.1505 C.ar    1  UNL1        0.0172
     14 C         142.9070  130.8612  156.3147 C.ar    1  UNL1        0.0602
     15 C         142.7368  132.3472  156.2022 C.ar    1  UNL1        0.0247
     16 C         141.5596  132.6129  155.3113 C.ar    1  UNL1        0.0203
     17 C         141.0022  131.2911  154.8732 C.ar    1  UNL1        0.0760
     18 N         141.8349  130.2084  155.4934 N.ar    1  UNL1       -0.3240
     19 C         141.6312  128.7321  155.3221 C.3     1  UNL1        0.1305
     20 C         139.7744  138.5920  160.7414 C.ar    1  UNL1        0.0733
     21 C         140.1236  138.7246  159.2887 C.ar    1  UNL1        0.0364
     22 C         141.5656  138.3465  159.1222 C.ar    1  UNL1        0.1029
     23 N         142.1076  137.9801  160.4720 N.ar    1  UNL1       -0.1697
     24 N         141.0006  138.1318  161.4728 N.ar    1  UNL1       -0.2515
     25 C         141.1019  137.8695  162.9462 C.3     1  UNL1        0.1534
     26 C         138.4343  138.8705  161.3551 C.3     1  UNL1        0.1184
     27 C         138.1435  140.1019  163.6242 C.3     1  UNL1        0.0900
     28 N         138.2113  140.1376  162.1262 N.3     1  UNL1       -0.2652
     29 C         138.0560  141.4406  161.3993 C.3     1  UNL1        0.0900
@<TRIPOS>BOND
     1    27    28    1
     2    28    29    1
     3    28    26    1
     4    26    20    1
     5    20    21   ar
     6    21    22   ar
     7    22     1    1
     8     1     2    2
     9     2     3    1
    10     3     4    2
    11     4     5    1
    12     5     6    2
    13     6     7    1
    14     7    10    1
    15    10    11   ar
    16    11    12   ar
    17    12    13   ar
    18    13    14   ar
    19    14    15   ar
    20    15    16   ar
    21    16    17   ar
    22    17    18   ar
    23    18    19    1
    24     7     8    2
    25     8     9    1
    26    22    23   ar
    27    23    24   ar
    28    24    25    1
    29    24    20   ar
    30     9     1    1
    31     9     5    1
    32    15    10   ar
    33    18    14   ar
@<TRIPOS>MOLECULE
*****
 29 33 0 0 0
SMALL
GASTEIGER

@<TRIPOS>ATOM
      1 C         142.4158  140.9188  161.2244 C.2     1  UNL1        0.0617
      2 C         143.4013  140.2547  160.3091 C.2     1  UNL1        0.0525
      3 C         144.1111  139.0086  160.7485 C.2     1  UNL1        0.2357
      4 N         143.8355  138.4265  162.1032 N.2     1  UNL1       -0.0303
      5 C         142.8500  139.0906  163.0185 C.2     1  UNL1        0.4092
      6 N         142.3769  138.7505  164.4007 N.2     1  UNL1        0.0120
      7 C         141.3746  139.7866  164.8155 C.2     1  UNL1        0.3751
      8 N         141.2283  140.7669  163.6897 N.2     1  UNL1       -0.0464
      9 C         142.1402  140.3367  162.5791 C.3     1  UNL1        0.3487
     10 C         140.6465  139.8339  166.1262 C.ar    1  UNL1        0.0896
     11 C         139.2475  139.3020  166.2266 C.ar    1  UNL1        0.0078
     12 C         138.5194  139.3493  167.5371 C.ar    1  UNL1        0.0017
     13 C         139.1902  139.9286  168.7472 C.ar    1  UNL1        0.0172
     14 C         140.5891  140.4605  168.6468 C.ar    1  UNL1        0.0602
     15 C         141.3172  140.4132  167.3363 C.ar    1  UNL1        0.0247
     16 C         142.6788  141.0087  167.5407 C.ar    1  UNL1        0.0203
     17 C         142.7921  141.4241  168.9775 C.ar    1  UNL1        0.0760
     18 N         141.5006  141.0853  169.6612 N.ar    1  UNL1       -0.3240
     19 C         141.1774  141.3286  171.1057 C.3     1  UNL1        0.1305
     20 C         140.5425  143.7988  159.4182 C.ar    1  UNL1        0.0733
     21 C         141.1738  142.4382  159.4093 C.ar    1  UNL1        0.0364
     22 C         141.7059  142.1651  160.7850 C.ar    1  UNL1        0.1029
     23 N         141.4035  143.3569  161.6440 N.ar    1  UNL1       -0.1697
     24 N         140.6845  144.3666  160.7993 N.ar    1  UNL1       -0.2515
     25 C         140.1936  145.7086  161.2556 C.3     1  UNL1        0.1534
     26 C         139.8848  144.4732  158.2509 C.3     1  UNL1        0.1184
     27 C         142.0688  145.7570  157.6748 C.3     1  UNL1        0.0900
     28 N         140.5836  145.5950  157.5415 N.3     1  UNL1       -0.2652
     29 C         139.7971  146.5548  156.6986 C.3     1  UNL1        0.0900
@<TRIPOS>BOND
     1    27    28    1
     2    28    29    1
     3    28    26    1
     4    26    20    1
     5    20    21   ar
     6    21    22   ar
     7    22     1    1
     8     1     2    2
     9     2     3    1
    10     3     4    2
    11     4     5    1
    12     5     6    2
    13     6     7    1
    14     7    10    1
    15    10    11   ar
    16    11    12   ar
    17    12    13   ar
    18    13    14   ar
    19    14    15   ar
    20    15    16   ar
    21    16    17   ar
    22    17    18   ar
    23    18    19    1
    24     7     8    2
    25     8     9    1
    26    22    23   ar
    27    23    24   ar
    28    24    25    1
    29    24    20   ar
    30     9     1    1
    31     9     5    1
    32    15    10   ar
    33    18    14   ar
@<TRIPOS>MOLECULE
*****
 29 33 0 0 0
SMALL
GASTEIGER

@<TRIPOS>ATOM
      1 C         140.3466  139.9040  162.0835 C.2     1  UNL1        0.0617
      2 C         139.7918  138.9469  161.0706 C.2     1  UNL1        0.0525
      3 C         138.9218  137.8078  161.5128 C.2     1  UNL1        0.2357
      4 N         138.6067  137.6259  162.9680 N.2     1  UNL1       -0.0303
      5 C         139.1615  138.5830  163.9810 C.2     1  UNL1        0.4092
      6 N         139.0244  138.6566  165.4728 N.2     1  UNL1        0.0120
      7 C         139.8096  139.8412  165.9526 C.2     1  UNL1        0.3751
      8 N         140.4321  140.4997  164.7573 N.2     1  UNL1       -0.0464
      9 C         140.0315  139.7220  163.5387 C.3     1  UNL1        0.3487
     10 C         139.9480  140.2887  167.3777 C.ar    1  UNL1        0.0896
     11 C         138.9055  139.9098  168.3874 C.ar    1  UNL1        0.0078
     12 C         139.0439  140.3572  169.8124 C.ar    1  UNL1        0.0017
     13 C         140.2247  141.1837  170.2276 C.ar    1  UNL1        0.0172
     14 C         141.2673  141.5627  169.2179 C.ar    1  UNL1        0.0602
     15 C         141.1289  141.1152  167.7929 C.ar    1  UNL1        0.0247
     16 C         142.3070  141.6388  167.0261 C.ar    1  UNL1        0.0203
     17 C         143.1735  142.4099  167.9772 C.ar    1  UNL1        0.0760
     18 N         142.5309  142.3628  169.3318 N.ar    1  UNL1       -0.3240
     19 C         143.0592  143.0035  170.5810 C.3     1  UNL1        0.1305
     20 C         142.0868  142.9329  160.3913 C.ar    1  UNL1        0.0733
     21 C         140.9698  141.9341  160.4600 C.ar    1  UNL1        0.0364
     22 C         141.2167  141.0431  161.6413 C.ar    1  UNL1        0.1029
     23 N         142.4862  141.4913  162.3026 N.ar    1  UNL1       -0.1697
     24 N         143.0240  142.6592  161.5301 N.ar    1  UNL1       -0.2515
     25 C         144.2787  143.4199  161.8417 C.3     1  UNL1        0.1534
     26 C         142.2398  144.0152  159.3642 C.3     1  UNL1        0.1184
     27 C         140.9435  145.7675  157.9503 C.3     1  UNL1        0.0900
     28 N         141.2182  145.1096  159.2699 N.3     1  UNL1       -0.2652
     29 C         140.4714  145.5460  160.4955 C.3     1  UNL1        0.0900
@<TRIPOS>BOND
     1    27    28    1
     2    28    29    1
     3    28    26    1
     4    26    20    1
     5    20    21   ar
     6    21    22   ar
     7    22     1    1
     8     1     2    2
     9     2     3    1
    10     3     4    2
    11     4     5    1
    12     5     6    2
    13     6     7    1
    14     7    10    1
    15    10    11   ar
    16    11    12   ar
    17    12    13   ar
    18    13    14   ar
    19    14    15   ar
    20    15    16   ar
    21    16    17   ar
    22    17    18   ar
    23    18    19    1
    24     7     8    2
    25     8     9    1
    26    22    23   ar
    27    23    24   ar
    28    24    25    1
    29    24    20   ar
    30     9     1    1
    31     9     5    1
    32    15    10   ar
    33    18    14   ar
@<TRIPOS>MOLECULE
*****
 29 33 0 0 0
SMALL
GASTEIGER

@<TRIPOS>ATOM
      1 C         142.6033  139.2474  159.0834 C.2     1  UNL1        0.0617
      2 C         143.2328  140.6033  159.2070 C.2     1  UNL1        0.0525
      3 C         144.1822  141.0883  158.1519 C.2     1  UNL1        0.2357
      4 N         144.5020  140.2176  156.9731 N.2     1  UNL1       -0.0303
      5 C         143.8725  138.8617  156.8495 C.2     1  UNL1        0.4092
      6 N         143.9958  137.7890  155.8084 N.2     1  UNL1        0.0120
      7 C         143.1226  136.6409  156.2200 C.2     1  UNL1        0.3751
      8 N         142.4596  137.0041  157.5156 N.2     1  UNL1       -0.0464
      9 C         142.9231  138.3766  157.9046 C.3     1  UNL1        0.3487
     10 C         142.9438  135.3553  155.4680 C.ar    1  UNL1        0.0896
     11 C         142.2821  135.3597  154.1218 C.ar    1  UNL1        0.0078
     12 C         142.1033  134.0742  153.3699 C.ar    1  UNL1        0.0017
     13 C         142.5862  132.7844  153.9641 C.ar    1  UNL1        0.0172
     14 C         143.2478  132.7800  155.3103 C.ar    1  UNL1        0.0602
     15 C         143.4266  134.0655  156.0622 C.ar    1  UNL1        0.0247
     16 C         144.1104  133.7520  157.3601 C.ar    1  UNL1        0.0203
     17 C         144.3541  132.2729  157.4103 C.ar    1  UNL1        0.0760
     18 N         143.8210  131.6721  156.1433 N.ar    1  UNL1       -0.3240
     19 C         143.8552  130.2185  155.7744 C.3     1  UNL1        0.1305
     20 C         140.7729  137.7845  162.1778 C.ar    1  UNL1        0.0733
     21 C         142.0342  138.1031  161.4312 C.ar    1  UNL1        0.0364
     22 C         141.6538  138.7623  160.1386 C.ar    1  UNL1        0.1029
     23 N         140.1574  138.8511  160.0864 N.ar    1  UNL1       -0.1697
     24 N         139.6129  138.2469  161.3467 N.ar    1  UNL1       -0.2515
     25 C         138.1630  138.1261  161.7118 C.3     1  UNL1        0.1534
     26 C         140.6866  137.1203  163.5200 C.3     1  UNL1        0.1184
     27 C         138.9781  137.9574  165.2892 C.3     1  UNL1        0.0900
     28 N         140.3740  137.9339  164.7408 N.3     1  UNL1       -0.2652
     29 C         141.4574  138.7241  165.4132 C.3     1  UNL1        0.0900
@<TRIPOS>BOND
     1    27    28    1
     2    28    29    1
     3    28    26    1
     4    26    20    1
     5    20    21   ar
     6    21    22   ar
     7    22     1    1
     8     1     2    2
     9     2     3    1
    10     3     4    2
    11     4     5    1
    12     5     6    2
    13     6     7    1
    14     7    10    1
    15    10    11   ar
    16    11    12   ar
    17    12    13   ar
    18    13    14   ar
    19    14    15   ar
    20    15    16   ar
    21    16    17   ar
    22    17    18   ar
    23    18    19    1
    24     7     8    2
    25     8     9    1
    26    22    23   ar
    27    23    24   ar
    28    24    25    1
    29    24    20   ar
    30     9     1    1
    31     9     5    1
    32    15    10   ar
    33    18    14   ar
@<TRIPOS>MOLECULE
*****
 29 33 0 0 0
SMALL
GASTEIGER

@<TRIPOS>ATOM
      1 C         142.6171  138.7704  157.2982 C.2     1  UNL1        0.0617
      2 C         143.4840  139.9425  156.9453 C.2     1  UNL1        0.0525
      3 C         144.6387  139.7649  156.0044 C.2     1  UNL1        0.2357
      4 N         144.9264  138.4152  155.4165 N.2     1  UNL1       -0.0303
      5 C         144.0594  137.2431  155.7694 C.2     1  UNL1        0.4092
      6 N         144.0981  135.8036  155.3497 N.2     1  UNL1        0.0120
      7 C         142.9673  135.0915  156.0311 C.2     1  UNL1        0.3751
      8 N         142.2298  136.0909  156.8720 N.2     1  UNL1       -0.0464
      9 C         142.9047  137.4207  156.7102 C.3     1  UNL1        0.3487
     10 C         142.6328  133.6355  155.8954 C.ar    1  UNL1        0.0896
     11 C         141.4922  133.2064  155.0209 C.ar    1  UNL1        0.0078
     12 C         141.1577  131.7505  154.8852 C.ar    1  UNL1        0.0017
     13 C         141.9639  130.7237  155.6239 C.ar    1  UNL1        0.0172
     14 C         143.1045  131.1529  156.4984 C.ar    1  UNL1        0.0602
     15 C         143.4390  132.6088  156.6341 C.ar    1  UNL1        0.0247
     16 C         144.6115  132.7305  157.5619 C.ar    1  UNL1        0.0203
     17 C         145.0015  131.3499  157.9996 C.ar    1  UNL1        0.0760
     18 N         144.0702  130.3748  157.3423 N.ar    1  UNL1       -0.3240
     19 C         144.0995  128.8835  157.5011 C.3     1  UNL1        0.1305
     20 C         140.0398  138.8048  160.2003 C.ar    1  UNL1        0.0733
     21 C         141.3569  138.3786  159.6228 C.ar    1  UNL1        0.0364
     22 C         141.4623  138.9480  158.2390 C.ar    1  UNL1        0.1029
     23 N         140.2103  139.7260  157.9613 N.ar    1  UNL1       -0.1697
     24 N         139.3312  139.6375  159.1734 N.ar    1  UNL1       -0.2515
     25 C         137.9805  140.2707  159.3310 C.3     1  UNL1        0.1534
     26 C         139.5222  138.4590  161.5650 C.3     1  UNL1        0.1184
     27 C         140.3884  140.7338  162.4732 C.3     1  UNL1        0.0900
     28 N         139.6559  139.4428  162.6894 N.3     1  UNL1       -0.2652
     29 C         139.0571  139.1356  164.0300 C.3     1  UNL1        0.0900
@<TRIPOS>BOND
     1    27    28    1
     2    28    29    1
     3    28    26    1
     4    26    20    1
     5    20    21   ar
     6    21    22   ar
     7    22     1    1
     8     1     2    2
     9     2     3    1
    10     3     4    2
    11     4     5    1
    12     5     6    2
    13     6     7    1
    14     7    10    1
    15    10    11   ar
    16    11    12   ar
    17    12    13   ar
    18    13    14   ar
    19    14    15   ar
    20    15    16   ar
    21    16    17   ar
    22    17    18   ar
    23    18    19    1
    24     7     8    2
    25     8     9    1
    26    22    23   ar
    27    23    24   ar
    28    24    25    1
    29    24    20   ar
    30     9     1    1
    31     9     5    1
    32    15    10   ar
    33    18    14   ar
@<TRIPOS>MOLECULE
*****
 29 33 0 0 0
SMALL
GASTEIGER

@<TRIPOS>ATOM
      1 C         143.2929  137.7749  156.2515 C.2     1  UNL1        0.0617
      2 C         143.7899  138.7133  155.1921 C.2     1  UNL1        0.0525
      3 C         143.9538  140.1723  155.4996 C.2     1  UNL1        0.2357
      4 N         143.6208  140.6928  156.8664 N.2     1  UNL1       -0.0303
      5 C         143.1237  139.7544  157.9257 C.2     1  UNL1        0.4092
      6 N         142.7186  139.9757  159.3529 N.2     1  UNL1        0.0120
      7 C         142.3042  138.6535  159.9275 C.2     1  UNL1        0.3751
      8 N         142.4533  137.6150  158.8555 N.2     1  UNL1       -0.0464
      9 C         142.9598  138.2954  157.6183 C.3     1  UNL1        0.3487
     10 C         141.8250  138.4122  161.3283 C.ar    1  UNL1        0.0896
     11 C         140.4299  137.9163  161.5687 C.ar    1  UNL1        0.0078
     12 C         139.9506  137.6750  162.9694 C.ar    1  UNL1        0.0017
     13 C         140.8664  137.9297  164.1297 C.ar    1  UNL1        0.0172
     14 C         142.2615  138.4256  163.8894 C.ar    1  UNL1        0.0602
     15 C         142.7408  138.6669  162.4887 C.ar    1  UNL1        0.0247
     16 C         144.1579  139.1536  162.5610 C.ar    1  UNL1        0.0203
     17 C         144.5543  139.2131  164.0063 C.ar    1  UNL1        0.0760
     18 N         143.3823  138.7632  164.8274 N.ar    1  UNL1       -0.3240
     19 C         143.3388  138.6676  166.3238 C.3     1  UNL1        0.1305
     20 C         143.0543  133.9014  156.1798 C.ar    1  UNL1        0.0733
     21 C         143.3201  135.1844  156.9101 C.ar    1  UNL1        0.0364
     22 C         143.1289  136.3159  155.9441 C.ar    1  UNL1        0.1029
     23 N         142.7449  135.7322  154.6167 N.ar    1  UNL1       -0.1697
     24 N         142.6988  134.2400  154.7624 N.ar    1  UNL1       -0.2515
     25 C         142.3572  133.2587  153.6806 C.3     1  UNL1        0.1534
     26 C         143.1307  132.5221  156.7643 C.3     1  UNL1        0.1184
     27 C         144.8334  130.8009  155.8219 C.3     1  UNL1        0.0900
     28 N         144.4522  131.8184  156.8559 N.3     1  UNL1       -0.2652
     29 C         145.3926  132.1323  157.9818 C.3     1  UNL1        0.0900
@<TRIPOS>BOND
     1    27    28    1
     2    28    29    1
     3    28    26    1
     4    26    20    1
     5    20    21   ar
     6    21    22   ar
     7    22     1    1
     8     1     2    2
     9     2     3    1
    10     3     4    2
    11     4     5    1
    12     5     6    2
    13     6     7    1
    14     7    10    1
    15    10    11   ar
    16    11    12   ar
    17    12    13   ar
    18    13    14   ar
    19    14    15   ar
    20    15    16   ar
    21    16    17   ar
    22    17    18   ar
    23    18    19    1
    24     7     8    2
    25     8     9    1
    26    22    23   ar
    27    23    24   ar
    28    24    25    1
    29    24    20   ar
    30     9     1    1
    31     9     5    1
    32    15    10   ar
    33    18    14   ar
@<TRIPOS>MOLECULE
*****
 29 33 0 0 0
SMALL
GASTEIGER

@<TRIPOS>ATOM
      1 C         143.0638  137.5430  155.9171 C.2     1  UNL1        0.0617
      2 C         143.2274  138.3696  154.6762 C.2     1  UNL1        0.0525
      3 C         143.3455  139.8614  154.7789 C.2     1  UNL1        0.2357
      4 N         143.3000  140.5265  156.1226 N.2     1  UNL1       -0.0303
      5 C         143.1364  139.6999  157.3635 C.2     1  UNL1        0.4092
      6 N         143.0580  140.0723  158.8145 N.2     1  UNL1        0.0120
      7 C         142.8915  138.8106  159.6085 C.2     1  UNL1        0.3751
      8 N         142.8670  137.6585  158.6483 N.2     1  UNL1       -0.0464
      9 C         143.0183  138.2082  157.2608 C.3     1  UNL1        0.3487
     10 C         142.7708  138.7174  161.1008 C.ar    1  UNL1        0.0896
     11 C         143.9766  138.9359  161.9658 C.ar    1  UNL1        0.0078
     12 C         143.8559  138.8427  163.4580 C.ar    1  UNL1        0.0017
     13 C         142.5295  138.5311  164.0852 C.ar    1  UNL1        0.0172
     14 C         141.3237  138.3125  163.2201 C.ar    1  UNL1        0.0602
     15 C         141.4444  138.4057  161.7279 C.ar    1  UNL1        0.0247
     16 C         140.0911  138.1433  161.1361 C.ar    1  UNL1        0.0203
     17 C         139.1342  137.8880  162.2625 C.ar    1  UNL1        0.0760
     18 N         139.8960  137.9926  163.5505 N.ar    1  UNL1       -0.3240
     19 C         139.3293  137.8094  164.9273 C.3     1  UNL1        0.1305
     20 C         143.5019  133.6890  155.7732 C.ar    1  UNL1        0.0733
     21 C         144.0702  135.0667  155.9431 C.ar    1  UNL1        0.0364
     22 C         142.9457  136.0511  155.8144 C.ar    1  UNL1        0.1029
     23 N         141.6824  135.2818  155.5650 N.ar    1  UNL1       -0.1697
     24 N         142.0262  133.8219  155.5395 N.ar    1  UNL1       -0.2515
     25 C         141.0632  132.6931  155.3191 C.3     1  UNL1        0.1534
     26 C         144.2738  132.4040  155.8275 C.3     1  UNL1        0.1184
     27 C         145.4923  132.1768  158.1108 C.3     1  UNL1        0.0900
     28 N         144.4588  131.6949  157.1363 N.3     1  UNL1       -0.2652
     29 C         143.6103  130.5039  157.4706 C.3     1  UNL1        0.0900
@<TRIPOS>BOND
     1    27    28    1
     2    28    29    1
     3    28    26    1
     4    26    20    1
     5    20    21   ar
     6    21    22   ar
     7    22     1    1
     8     1     2    2
     9     2     3    1
    10     3     4    2
    11     4     5    1
    12     5     6    2
    13     6     7    1
    14     7    10    1
    15    10    11   ar
    16    11    12   ar
    17    12    13   ar
    18    13    14   ar
    19    14    15   ar
    20    15    16   ar
    21    16    17   ar
    22    17    18   ar
    23    18    19    1
    24     7     8    2
    25     8     9    1
    26    22    23   ar
    27    23    24   ar
    28    24    25    1
    29    24    20   ar
    30     9     1    1
    31     9     5    1
    32    15    10   ar
    33    18    14   ar
@<TRIPOS>MOLECULE
*****
 29 33 0 0 0
SMALL
GASTEIGER

@<TRIPOS>ATOM
      1 C         140.4393  142.8487  160.3105 C.2     1  UNL1        0.0617
      2 C         140.5531  144.2110  159.6934 C.2     1  UNL1        0.0525
      3 C         140.3133  145.4345  160.5274 C.2     1  UNL1        0.2357
      4 N         139.9598  145.2956  161.9785 N.2     1  UNL1       -0.0303
      5 C         139.8460  143.9332  162.5956 C.2     1  UNL1        0.4092
      6 N         139.5154  143.4869  163.9890 N.2     1  UNL1        0.0120
      7 C         139.5508  141.9876  164.0161 C.2     1  UNL1        0.3751
      8 N         139.9033  141.5072  162.6396 N.2     1  UNL1       -0.0464
      9 C         140.0858  142.7097  161.7616 C.3     1  UNL1        0.3487
     10 C         139.2809  141.1208  165.2103 C.ar    1  UNL1        0.0896
     11 C         138.3333  139.9634  165.0982 C.ar    1  UNL1        0.0078
     12 C         138.0635  139.0967  166.2923 C.ar    1  UNL1        0.0017
     13 C         138.7413  139.3872  167.5984 C.ar    1  UNL1        0.0172
     14 C         139.6889  140.5446  167.7105 C.ar    1  UNL1        0.0602
     15 C         139.9587  141.4113  166.5165 C.ar    1  UNL1        0.0247
     16 C         140.9347  142.4743  166.9263 C.ar    1  UNL1        0.0203
     17 C         141.2680  142.2644  168.3736 C.ar    1  UNL1        0.0760
     18 N         140.4981  141.0718  168.8583 N.ar    1  UNL1       -0.3240
     19 C         140.5315  140.5057  170.2471 C.3     1  UNL1        0.1305
     20 C         140.3376  139.5281  158.3031 C.ar    1  UNL1        0.0733
     21 C         139.6706  140.5595  159.1641 C.ar    1  UNL1        0.0364
     22 C         140.6791  141.6251  159.4766 C.ar    1  UNL1        0.1029
     23 N         141.9694  141.2522  158.8086 N.ar    1  UNL1       -0.1697
     24 N         141.7584  139.9563  158.0834 N.ar    1  UNL1       -0.2515
     25 C         142.7874  139.2181  157.2796 C.3     1  UNL1        0.1534
     26 C         139.6965  138.2867  157.7576 C.3     1  UNL1        0.1184
     27 C         138.8228  139.5044  155.6354 C.3     1  UNL1        0.0900
     28 N         139.2437  138.2424  156.3282 N.3     1  UNL1       -0.2652
     29 C         139.2120  136.9360  155.5916 C.3     1  UNL1        0.0900
@<TRIPOS>BOND
     1    27    28    1
     2    28    29    1
     3    28    26    1
     4    26    20    1
     5    20    21   ar
     6    21    22   ar
     7    22     1    1
     8     1     2    2
     9     2     3    1
    10     3     4    2
    11     4     5    1
    12     5     6    2
    13     6     7    1
    14     7    10    1
    15    10    11   ar
    16    11    12   ar
    17    12    13   ar
    18    13    14   ar
    19    14    15   ar
    20    15    16   ar
    21    16    17   ar
    22    17    18   ar
    23    18    19    1
    24     7     8    2
    25     8     9    1
    26    22    23   ar
    27    23    24   ar
    28    24    25    1
    29    24    20   ar
    30     9     1    1
    31     9     5    1
    32    15    10   ar
    33    18    14   ar
