@<TRIPOS>MOLECULE
*****
 41 44 0 0 0
SMALL
GASTEIGER

@<TRIPOS>ATOM
      1 C         139.3781  139.5320  160.5433 C.ar    1  UNL1        0.0597
      2 C         139.3272  138.6330  161.7429 C.ar    1  UNL1        0.0422
      3 C         138.6684  139.1038  163.0055 C.ar    1  UNL1        0.1485
      4 C         138.0605  140.4737  163.0685 C.ar    1  UNL1        0.0743
      5 C         138.1114  141.3727  161.8689 C.ar    1  UNL1        0.1416
      6 C         138.7702  140.9018  160.6063 C.ar    1  UNL1        0.0416
      7 N         141.5231  138.8627  159.2390 N.am    1  UNL1       -0.2644
      8 C         140.0369  139.0612  159.2805 C.2     1  UNL1        0.2508
      9 O         139.2094  138.7889  158.0594 O.2     1  UNL1       -0.2698
     10 H         142.0662  139.0414  160.0405 H       1  UNL1        0.1566
     11 N         143.0847  136.9553  156.2408 N.ar    1  UNL1       -0.2357
     12 C         143.3066  138.3795  155.8255 C.ar    1  UNL1        0.0988
     13 C         142.7485  139.2674  156.8982 C.ar    1  UNL1        0.0565
     14 C         142.1819  138.3919  157.9763 C.ar    1  UNL1        0.1557
     15 N         142.3896  136.9630  157.5700 N.ar    1  UNL1       -0.1534
     16 C         143.4873  135.7374  155.4634 C.3     1  UNL1        0.2423
     17 P         142.9795  134.3859  155.8706 P.3     1  UNL1        0.3677
     18 O         142.4717  133.0345  156.2777 O.2     1  UNL1       -0.2557
     19 O         144.1335  134.2375  156.8174 O.3     1  UNL1       -0.2928
     20 C         145.3458  132.1120  157.6904 C.3     1  UNL1        0.0352
     21 C         144.1902  133.0663  157.7528 C.3     1  UNL1        0.1515
     22 O         141.8255  134.5343  154.9238 O.3     1  UNL1       -0.2928
     23 C         142.0752  134.6478  153.4490 C.3     1  UNL1        0.1515
     24 C         141.7248  133.5079  152.5391 C.3     1  UNL1        0.0352
     25 O         138.6175  138.2048  164.2052 O.3     1  UNL1       -0.4518
     26 C         138.8504  138.7688  165.5755 C.ar    1  UNL1        0.1644
     27 C         140.0956  139.5550  165.8613 C.ar    1  UNL1        0.0408
     28 C         140.3285  140.1190  167.2316 C.ar    1  UNL1        0.0269
     29 C         139.3162  139.8969  168.3160 C.ar    1  UNL1        0.1349
     30 N         138.0711  139.1108  168.0302 N.ar    1  UNL1       -0.2361
     31 C         137.8382  138.5467  166.6599 C.ar    1  UNL1        0.1363
     32 C         139.5491  140.4609  169.6863 C.2     1  UNL1        0.2668
     33 O         139.3545  139.5961  170.8963 O.2     1  UNL1       -0.2683
     34 N         139.9765  141.8898  169.8465 N.am    1  UNL1       -0.2747
     35 C         140.2631  143.0230  168.9064 C.3     1  UNL1        0.0955
     36 C         140.5810  143.9105  170.0731 C.3     1  UNL1        0.0430
     37 C         140.2944  142.7774  171.0132 C.3     1  UNL1        0.0955
     38 O         137.5035  142.7425  161.9319 O.3     1  UNL1       -0.4791
     39 C         138.1233  143.7990  162.7977 C.3     1  UNL1        0.1661
     40 C         137.6950  143.9431  164.2280 C.3     1  UNL1        0.0472
     41 C         139.1716  144.7115  162.2331 C.3     1  UNL1        0.0472
@<TRIPOS>BOND
     1    20    21    1
     2    21    19    1
     3    19    17    1
     4    17    18    2
     5    17    16    1
     6    16    11    1
     7    11    12   ar
     8    12    13   ar
     9    13    14   ar
    10    14     7    1
    11     7     8   am
    12     8     9    2
    13     8     1    1
    14     1     2   ar
    15     2     3   ar
    16     3    25    1
    17    25    26    1
    18    26    27   ar
    19    27    28   ar
    20    28    29   ar
    21    29    32    1
    22    32    33    2
    23    32    34   am
    24    34    35    1
    25    35    36    1
    26    36    37    1
    27    29    30   ar
    28    30    31   ar
    29     3     4   ar
    30     4     5   ar
    31     5    38    1
    32    38    39    1
    33    39    40    1
    34    39    41    1
    35     5     6   ar
    36    14    15   ar
    37    17    22    1
    38    22    23    1
    39    23    24    1
    40    15    11   ar
    41     6     1   ar
    42    31    26   ar
    43    37    34    1
    44     7    10    1
@<TRIPOS>MOLECULE
*****
 41 44 0 0 0
SMALL
GASTEIGER

@<TRIPOS>ATOM
      1 C         139.4323  139.5397  160.4029 C.ar    1  UNL1        0.0597
      2 C         139.2661  138.6647  161.6098 C.ar    1  UNL1        0.0422
      3 C         138.5626  139.1902  162.8259 C.ar    1  UNL1        0.1485
      4 C         138.0253  140.5906  162.8351 C.ar    1  UNL1        0.0743
      5 C         138.1915  141.4656  161.6282 C.ar    1  UNL1        0.1416
      6 C         138.8950  140.9402  160.4121 C.ar    1  UNL1        0.0416
      7 N         141.6332  138.9303  159.1641 N.am    1  UNL1       -0.2644
      8 C         140.1357  139.0143  159.1867 C.2     1  UNL1        0.2508
      9 O         139.3417  138.5729  157.9931 O.2     1  UNL1       -0.2698
     10 H         142.1543  139.2200  159.9475 H       1  UNL1        0.1566
     11 N         143.3672  136.8991  156.3475 N.ar    1  UNL1       -0.2357
     12 C         143.4712  138.2938  155.8051 C.ar    1  UNL1        0.0988
     13 C         142.8343  139.2245  156.7943 C.ar    1  UNL1        0.0565
     14 C         142.3367  138.4049  157.9479 C.ar    1  UNL1        0.1557
     15 N         142.6660  136.9678  157.6717 N.ar    1  UNL1       -0.1534
     16 C         143.8751  135.6544  155.6824 C.3     1  UNL1        0.2423
     17 P         143.1105  134.3702  155.8102 P.3     1  UNL1        0.3677
     18 O         142.3460  133.0860  155.9380 O.2     1  UNL1       -0.2557
     19 O         142.0482  134.9121  154.9003 O.3     1  UNL1       -0.2928
     20 C         141.6498  135.4868  152.3982 C.3     1  UNL1        0.0352
     21 C         142.0067  134.4907  153.4613 C.3     1  UNL1        0.1515
     22 O         144.1729  133.8283  156.7200 O.3     1  UNL1       -0.2928
     23 C         144.5217  132.3699  156.6807 C.3     1  UNL1        0.1515
     24 C         145.2334  131.7374  157.8397 C.3     1  UNL1        0.0352
     25 O         138.3964  138.3151  164.0329 O.3     1  UNL1       -0.4518
     26 C         138.7280  138.8465  165.3959 C.ar    1  UNL1        0.1644
     27 C         139.9348  139.7164  165.5885 C.ar    1  UNL1        0.0408
     28 C         140.2664  140.2478  166.9515 C.ar    1  UNL1        0.0269
     29 C         139.3912  139.9093  168.1218 C.ar    1  UNL1        0.1349
     30 N         138.1845  139.0395  167.9291 N.ar    1  UNL1       -0.2361
     31 C         137.8529  138.5081  166.5662 C.ar    1  UNL1        0.1363
     32 C         139.7228  140.4407  169.4848 C.2     1  UNL1        0.2668
     33 O         138.6494  141.0596  170.3301 O.2     1  UNL1       -0.2683
     34 N         141.1280  140.3532  170.0024 N.am    1  UNL1       -0.2747
     35 C         142.4245  139.8217  169.4670 C.3     1  UNL1        0.0955
     36 C         143.1152  140.2295  170.7345 C.3     1  UNL1        0.0430
     37 C         141.8187  140.7610  171.2700 C.3     1  UNL1        0.0955
     38 O         137.6542  142.8660  161.6374 O.3     1  UNL1       -0.4791
     39 C         138.2313  143.8846  162.5753 C.3     1  UNL1        0.1661
     40 C         137.7002  144.0029  163.9731 C.3     1  UNL1        0.0472
     41 C         139.3394  144.7849  162.1153 C.3     1  UNL1        0.0472
@<TRIPOS>BOND
     1    20    21    1
     2    21    19    1
     3    19    17    1
     4    17    18    2
     5    17    16    1
     6    16    11    1
     7    11    12   ar
     8    12    13   ar
     9    13    14   ar
    10    14     7    1
    11     7     8   am
    12     8     9    2
    13     8     1    1
    14     1     2   ar
    15     2     3   ar
    16     3    25    1
    17    25    26    1
    18    26    27   ar
    19    27    28   ar
    20    28    29   ar
    21    29    32    1
    22    32    33    2
    23    32    34   am
    24    34    35    1
    25    35    36    1
    26    36    37    1
    27    29    30   ar
    28    30    31   ar
    29     3     4   ar
    30     4     5   ar
    31     5    38    1
    32    38    39    1
    33    39    40    1
    34    39    41    1
    35     5     6   ar
    36    14    15   ar
    37    17    22    1
    38    22    23    1
    39    23    24    1
    40    15    11   ar
    41     6     1   ar
    42    31    26   ar
    43    37    34    1
    44     7    10    1
@<TRIPOS>MOLECULE
*****
 41 44 0 0 0
SMALL
GASTEIGER

@<TRIPOS>ATOM
      1 C         141.8839  138.3990  158.1550 C.ar    1  UNL1        0.0597
      2 C         140.5276  138.3344  158.7922 C.ar    1  UNL1        0.0422
      3 C         140.1276  139.3607  159.8103 C.ar    1  UNL1        0.1485
      4 C         141.0840  140.4516  160.1913 C.ar    1  UNL1        0.0743
      5 C         142.4404  140.5162  159.5542 C.ar    1  UNL1        0.1416
      6 C         142.8404  139.4899  158.5360 C.ar    1  UNL1        0.0416
      7 N         141.2710  136.3946  156.6197 N.am    1  UNL1       -0.2644
      8 C         142.2840  137.3726  157.1368 C.2     1  UNL1        0.2508
      9 O         143.6970  137.3243  156.6358 O.2     1  UNL1       -0.2698
     10 H         140.3436  136.4264  156.9486 H       1  UNL1        0.1566
     11 N         142.5092  133.3302  154.5847 N.ar    1  UNL1       -0.2357
     12 C         142.0638  134.2477  153.4848 C.ar    1  UNL1        0.0988
     13 C         141.5457  135.5074  154.1133 C.ar    1  UNL1        0.0565
     14 C         141.6710  135.3683  155.6016 C.ar    1  UNL1        0.1557
     15 N         142.2665  134.0227  155.8929 N.ar    1  UNL1       -0.1534
     16 C         143.0946  131.9606  154.4075 C.3     1  UNL1        0.2423
     17 P         142.9337  130.9308  155.4862 P.3     1  UNL1        0.3677
     18 O         142.7727  129.9009  156.5648 O.2     1  UNL1       -0.2557
     19 O         144.4243  130.8543  155.6356 O.3     1  UNL1       -0.2928
     20 C         145.2084  131.7187  157.9567 C.3     1  UNL1        0.0352
     21 C         145.1480  131.8726  156.4659 C.3     1  UNL1        0.1515
     22 O         141.4431  131.0073  155.3367 O.3     1  UNL1       -0.2928
     23 C         140.6914  129.8643  154.7214 C.3     1  UNL1        0.1515
     24 C         139.8618  130.0874  153.4918 C.3     1  UNL1        0.0352
     25 O         138.7711  139.2962  160.4475 O.3     1  UNL1       -0.4518
     26 C         138.6462  139.2380  161.9411 C.ar    1  UNL1        0.1644
     27 C         139.0733  138.0056  162.6820 C.ar    1  UNL1        0.0408
     28 C         138.9483  137.9474  164.1757 C.ar    1  UNL1        0.0269
     29 C         138.3963  139.1216  164.9284 C.ar    1  UNL1        0.1349
     30 N         137.9692  140.3539  164.1875 N.ar    1  UNL1       -0.2361
     31 C         138.0942  140.4121  162.6939 C.ar    1  UNL1        0.1363
     32 C         138.2713  139.0634  166.4221 C.2     1  UNL1        0.2668
     33 O         137.2200  138.1999  167.0537 O.2     1  UNL1       -0.2683
     34 N         139.1978  139.8688  167.2842 N.am    1  UNL1       -0.2747
     35 C         140.3331  140.8145  167.0261 C.3     1  UNL1        0.0955
     36 C         140.5080  141.0077  168.5034 C.3     1  UNL1        0.0430
     37 C         139.3726  140.0619  168.7614 C.3     1  UNL1        0.0955
     38 O         143.3969  141.6071  159.9352 O.3     1  UNL1       -0.4791
     39 C         144.1136  141.5502  161.2516 C.3     1  UNL1        0.1661
     40 C         144.3705  140.2267  161.9091 C.3     1  UNL1        0.0472
     41 C         144.5735  142.8169  161.9106 C.3     1  UNL1        0.0472
@<TRIPOS>BOND
     1    20    21    1
     2    21    19    1
     3    19    17    1
     4    17    18    2
     5    17    16    1
     6    16    11    1
     7    11    12   ar
     8    12    13   ar
     9    13    14   ar
    10    14     7    1
    11     7     8   am
    12     8     9    2
    13     8     1    1
    14     1     2   ar
    15     2     3   ar
    16     3    25    1
    17    25    26    1
    18    26    27   ar
    19    27    28   ar
    20    28    29   ar
    21    29    32    1
    22    32    33    2
    23    32    34   am
    24    34    35    1
    25    35    36    1
    26    36    37    1
    27    29    30   ar
    28    30    31   ar
    29     3     4   ar
    30     4     5   ar
    31     5    38    1
    32    38    39    1
    33    39    40    1
    34    39    41    1
    35     5     6   ar
    36    14    15   ar
    37    17    22    1
    38    22    23    1
    39    23    24    1
    40    15    11   ar
    41     6     1   ar
    42    31    26   ar
    43    37    34    1
    44     7    10    1
@<TRIPOS>MOLECULE
*****
 41 44 0 0 0
SMALL
GASTEIGER

@<TRIPOS>ATOM
      1 C         140.2591  138.9104  160.7049 C.ar    1  UNL1        0.0597
      2 C         139.3496  138.4842  161.8189 C.ar    1  UNL1        0.0422
      3 C         139.9271  138.0347  163.1282 C.ar    1  UNL1        0.1485
      4 C         141.4142  138.0114  163.3235 C.ar    1  UNL1        0.0743
      5 C         142.3237  138.4376  162.2094 C.ar    1  UNL1        0.1416
      6 C         141.7461  138.8871  160.9002 C.ar    1  UNL1        0.0416
      7 N         139.4134  140.8159  159.1544 N.am    1  UNL1       -0.2644
      8 C         139.6815  139.3600  159.3955 C.2     1  UNL1        0.2508
      9 O         139.3721  138.3534  158.3272 O.2     1  UNL1       -0.2698
     10 H         139.6165  141.4765  159.8556 H       1  UNL1        0.1566
     11 N         137.3019  141.6132  155.9966 N.ar    1  UNL1       -0.2357
     12 C         138.5925  142.3014  155.6637 C.ar    1  UNL1        0.0988
     13 C         139.5406  142.0865  156.8061 C.ar    1  UNL1        0.0565
     14 C         138.8359  141.2655  157.8450 C.ar    1  UNL1        0.1557
     15 N         137.4524  140.9730  157.3448 N.ar    1  UNL1       -0.1534
     16 C         136.0762  141.5724  155.1331 C.3     1  UNL1        0.2423
     17 P         135.2352  140.3313  155.0826 P.3     1  UNL1        0.3677
     18 O         134.3943  139.0903  155.0321 O.2     1  UNL1       -0.2557
     19 O         134.1879  141.0070  155.9172 O.3     1  UNL1       -0.2928
     20 C         131.5997  140.8654  156.0937 C.3     1  UNL1        0.0352
     21 C         132.8298  141.2784  155.3411 C.3     1  UNL1        0.1515
     22 O         136.2826  139.6556  154.2480 O.3     1  UNL1       -0.2928
     23 C         136.4129  138.1615  154.2731 C.3     1  UNL1        0.1515
     24 C         137.1298  137.4524  153.1626 C.3     1  UNL1        0.0352
     25 O         139.0176  137.6084  164.2423 O.3     1  UNL1       -0.4518
     26 C         139.0650  138.3189  165.5626 C.ar    1  UNL1        0.1644
     27 C         140.2521  139.1647  165.9169 C.ar    1  UNL1        0.0408
     28 C         140.2994  139.8752  167.2372 C.ar    1  UNL1        0.0269
     29 C         139.1597  139.7398  168.2030 C.ar    1  UNL1        0.1349
     30 N         137.9727  138.8940  167.8486 N.ar    1  UNL1       -0.2361
     31 C         137.9253  138.1836  166.5284 C.ar    1  UNL1        0.1363
     32 C         139.2071  140.4503  169.5233 C.2     1  UNL1        0.2668
     33 O         138.6945  139.7718  170.7589 O.2     1  UNL1       -0.2683
     34 N         139.7671  141.8393  169.6078 N.am    1  UNL1       -0.2747
     35 C         140.3530  142.8084  168.6242 C.3     1  UNL1        0.0955
     36 C         140.5591  143.8036  169.7275 C.3     1  UNL1        0.0430
     37 C         139.9731  142.8345  170.7111 C.3     1  UNL1        0.0955
     38 O         143.8107  138.4142  162.4047 O.3     1  UNL1       -0.4791
     39 C         144.4702  139.4489  163.2676 C.3     1  UNL1        0.1661
     40 C         144.6758  139.1855  164.7299 C.3     1  UNL1        0.0472
     41 C         144.9240  140.7469  162.6682 C.3     1  UNL1        0.0472
@<TRIPOS>BOND
     1    20    21    1
     2    21    19    1
     3    19    17    1
     4    17    18    2
     5    17    16    1
     6    16    11    1
     7    11    12   ar
     8    12    13   ar
     9    13    14   ar
    10    14     7    1
    11     7     8   am
    12     8     9    2
    13     8     1    1
    14     1     2   ar
    15     2     3   ar
    16     3    25    1
    17    25    26    1
    18    26    27   ar
    19    27    28   ar
    20    28    29   ar
    21    29    32    1
    22    32    33    2
    23    32    34   am
    24    34    35    1
    25    35    36    1
    26    36    37    1
    27    29    30   ar
    28    30    31   ar
    29     3     4   ar
    30     4     5   ar
    31     5    38    1
    32    38    39    1
    33    39    40    1
    34    39    41    1
    35     5     6   ar
    36    14    15   ar
    37    17    22    1
    38    22    23    1
    39    23    24    1
    40    15    11   ar
    41     6     1   ar
    42    31    26   ar
    43    37    34    1
    44     7    10    1
@<TRIPOS>MOLECULE
*****
 41 44 0 0 0
SMALL
GASTEIGER

@<TRIPOS>ATOM
      1 C         141.8672  138.4318  158.5855 C.ar    1  UNL1        0.0597
      2 C         140.5033  138.4036  159.2090 C.ar    1  UNL1        0.0422
      3 C         140.2027  139.2716  160.3948 C.ar    1  UNL1        0.1485
      4 C         141.2660  140.1678  160.9571 C.ar    1  UNL1        0.0743
      5 C         142.6299  140.1960  160.3336 C.ar    1  UNL1        0.1416
      6 C         142.9305  139.3280  159.1478 C.ar    1  UNL1        0.0416
      7 N         141.0975  136.6857  156.8223 N.am    1  UNL1       -0.2644
      8 C         142.1679  137.5637  157.3997 C.2     1  UNL1        0.2508
      9 O         143.5389  137.5738  156.7912 O.2     1  UNL1       -0.2698
     10 H         140.1977  136.6791  157.2216 H       1  UNL1        0.1566
     11 N         142.0083  133.9069  154.2700 N.ar    1  UNL1       -0.2357
     12 C         141.7133  135.0570  153.3533 C.ar    1  UNL1        0.0988
     13 C         141.3362  136.2380  154.1979 C.ar    1  UNL1        0.0565
     14 C         141.3982  135.8177  155.6364 C.ar    1  UNL1        0.1557
     15 N         141.8136  134.3770  155.6810 N.ar    1  UNL1       -0.1534
     16 C         142.4250  132.5288  153.8494 C.3     1  UNL1        0.2423
     17 P         142.2039  131.3648  154.7694 P.3     1  UNL1        0.3677
     18 O         141.9829  130.2009  155.6894 O.2     1  UNL1       -0.2557
     19 O         140.7241  131.6048  154.7176 O.3     1  UNL1       -0.2928
     20 C         139.9594  129.9296  152.8850 C.3     1  UNL1        0.0352
     21 C         139.8031  130.5139  154.2576 C.3     1  UNL1        0.1515
     22 O         143.6838  131.1248  154.8212 O.3     1  UNL1       -0.2928
     23 C         144.3498  130.8266  156.1318 C.3     1  UNL1        0.1515
     24 C         145.2544  131.8436  156.7619 C.3     1  UNL1        0.0352
     25 O         138.8387  139.2435  161.0184 O.3     1  UNL1       -0.4518
     26 C         138.6973  139.1860  162.5106 C.ar    1  UNL1        0.1644
     27 C         139.0770  137.9388  163.2525 C.ar    1  UNL1        0.0408
     28 C         138.9356  137.8813  164.7447 C.ar    1  UNL1        0.0269
     29 C         138.4145  139.0711  165.4951 C.ar    1  UNL1        0.1349
     30 N         138.0349  140.3183  164.7532 N.ar    1  UNL1       -0.2361
     31 C         138.1762  140.3757  163.2610 C.ar    1  UNL1        0.1363
     32 C         138.2731  139.0137  166.9873 C.2     1  UNL1        0.2668
     33 O         137.2985  138.0599  167.6121 O.2     1  UNL1       -0.2683
     34 N         139.1064  139.9100  167.8547 N.am    1  UNL1       -0.2747
     35 C         140.1512  140.9566  167.6037 C.3     1  UNL1        0.0955
     36 C         140.2848  141.1776  169.0813 C.3     1  UNL1        0.0430
     37 C         139.2400  140.1310  169.3323 C.3     1  UNL1        0.0955
     38 O         143.6933  141.0922  160.8958 O.3     1  UNL1       -0.4791
     39 C         143.8888  141.1843  162.3802 C.3     1  UNL1        0.1661
     40 C         143.3815  142.3799  163.1307 C.3     1  UNL1        0.0472
     41 C         144.5915  140.0808  163.1140 C.3     1  UNL1        0.0472
@<TRIPOS>BOND
     1    20    21    1
     2    21    19    1
     3    19    17    1
     4    17    18    2
     5    17    16    1
     6    16    11    1
     7    11    12   ar
     8    12    13   ar
     9    13    14   ar
    10    14     7    1
    11     7     8   am
    12     8     9    2
    13     8     1    1
    14     1     2   ar
    15     2     3   ar
    16     3    25    1
    17    25    26    1
    18    26    27   ar
    19    27    28   ar
    20    28    29   ar
    21    29    32    1
    22    32    33    2
    23    32    34   am
    24    34    35    1
    25    35    36    1
    26    36    37    1
    27    29    30   ar
    28    30    31   ar
    29     3     4   ar
    30     4     5   ar
    31     5    38    1
    32    38    39    1
    33    39    40    1
    34    39    41    1
    35     5     6   ar
    36    14    15   ar
    37    17    22    1
    38    22    23    1
    39    23    24    1
    40    15    11   ar
    41     6     1   ar
    42    31    26   ar
    43    37    34    1
    44     7    10    1
@<TRIPOS>MOLECULE
*****
 41 44 0 0 0
SMALL
GASTEIGER

@<TRIPOS>ATOM
      1 C         141.1102  140.3094  160.3063 C.ar    1  UNL1        0.0597
      2 C         140.0859  139.8867  161.3172 C.ar    1  UNL1        0.0422
      3 C         139.3821  140.9182  162.1482 C.ar    1  UNL1        0.1485
      4 C         139.7027  142.3725  161.9684 C.ar    1  UNL1        0.0743
      5 C         140.7271  142.7952  160.9575 C.ar    1  UNL1        0.1416
      6 C         141.4308  141.7637  160.1265 C.ar    1  UNL1        0.0416
      7 N         142.0964  139.5468  158.0269 N.am    1  UNL1       -0.2644
      8 C         141.8141  139.2779  159.4753 C.2     1  UNL1        0.2508
      9 O         142.2355  137.9774  160.0927 O.2     1  UNL1       -0.2698
     10 H         141.8198  140.4004  157.6217 H       1  UNL1        0.1566
     11 N         143.6051  136.3859  156.3542 N.ar    1  UNL1       -0.2357
     12 C         144.1616  137.4702  155.4797 C.ar    1  UNL1        0.0988
     13 C         143.6642  138.7863  155.9999 C.ar    1  UNL1        0.0565
     14 C         142.8003  138.5153  157.1958 C.ar    1  UNL1        0.1557
     15 N         142.7638  137.0318  157.4148 N.ar    1  UNL1       -0.1534
     16 C         143.8474  134.9142  156.1958 C.3     1  UNL1        0.2423
     17 P         142.6925  133.9837  155.9710 P.3     1  UNL1        0.3677
     18 O         141.5376  133.0534  155.7461 O.2     1  UNL1       -0.2557
     19 O         142.9461  133.3463  157.3049 O.3     1  UNL1       -0.2928
     20 C         144.8895  131.7185  157.8733 C.3     1  UNL1        0.0352
     21 C         144.3533  133.1155  157.7703 C.3     1  UNL1        0.1515
     22 O         142.4388  134.6212  154.6370 O.3     1  UNL1       -0.2928
     23 C         141.0478  135.0319  154.2544 C.3     1  UNL1        0.1515
     24 C         140.4210  136.2385  154.8878 C.3     1  UNL1        0.0352
     25 O         138.3576  140.4955  163.1592 O.3     1  UNL1       -0.4518
     26 C         138.7225  140.4255  164.6124 C.ar    1  UNL1        0.1644
     27 C         138.3097  139.2396  165.4330 C.ar    1  UNL1        0.0408
     28 C         138.6745  139.1695  166.8863 C.ar    1  UNL1        0.0269
     29 C         139.4522  140.2854  167.5190 C.ar    1  UNL1        0.1349
     30 N         139.8650  141.4712  166.6983 N.ar    1  UNL1       -0.2361
     31 C         139.5002  141.5412  165.2451 C.ar    1  UNL1        0.1363
     32 C         139.8171  140.2153  168.9722 C.2     1  UNL1        0.2668
     33 O         138.7715  139.8749  169.9924 O.2     1  UNL1       -0.2683
     34 N         141.2276  140.4857  169.4053 N.am    1  UNL1       -0.2747
     35 C         142.5028  140.8445  168.7017 C.3     1  UNL1        0.0955
     36 C         143.2222  140.8681  170.0177 C.3     1  UNL1        0.0430
     37 C         141.9470  140.5094  170.7213 C.3     1  UNL1        0.0955
     38 O         141.0476  144.2495  160.7776 O.3     1  UNL1       -0.4791
     39 C         140.8321  145.2105  161.9089 C.3     1  UNL1        0.1661
     40 C         141.7182  145.1565  163.1180 C.3     1  UNL1        0.0472
     41 C         139.7304  146.2256  161.8312 C.3     1  UNL1        0.0472
@<TRIPOS>BOND
     1    20    21    1
     2    21    19    1
     3    19    17    1
     4    17    18    2
     5    17    16    1
     6    16    11    1
     7    11    12   ar
     8    12    13   ar
     9    13    14   ar
    10    14     7    1
    11     7     8   am
    12     8     9    2
    13     8     1    1
    14     1     2   ar
    15     2     3   ar
    16     3    25    1
    17    25    26    1
    18    26    27   ar
    19    27    28   ar
    20    28    29   ar
    21    29    32    1
    22    32    33    2
    23    32    34   am
    24    34    35    1
    25    35    36    1
    26    36    37    1
    27    29    30   ar
    28    30    31   ar
    29     3     4   ar
    30     4     5   ar
    31     5    38    1
    32    38    39    1
    33    39    40    1
    34    39    41    1
    35     5     6   ar
    36    14    15   ar
    37    17    22    1
    38    22    23    1
    39    23    24    1
    40    15    11   ar
    41     6     1   ar
    42    31    26   ar
    43    37    34    1
    44     7    10    1
@<TRIPOS>MOLECULE
*****
 41 44 0 0 0
SMALL
GASTEIGER

@<TRIPOS>ATOM
      1 C         144.4656  141.9624  158.8412 C.ar    1  UNL1        0.0597
      2 C         143.6745  140.9986  158.0074 C.ar    1  UNL1        0.0422
      3 C         144.1061  140.6910  156.6042 C.ar    1  UNL1        0.1485
      4 C         145.3288  141.3473  156.0347 C.ar    1  UNL1        0.0743
      5 C         146.1199  142.3111  156.8684 C.ar    1  UNL1        0.1416
      6 C         145.6883  142.6186  158.2717 C.ar    1  UNL1        0.0416
      7 N         143.3940  143.5892  160.5602 N.am    1  UNL1       -0.2644
      8 C         144.0341  142.2699  160.2445 C.2     1  UNL1        0.2508
      9 O         144.2427  141.2582  161.3321 O.2     1  UNL1       -0.2698
     10 H         143.2571  144.2533  159.8464 H       1  UNL1        0.1566
     11 N         141.6798  143.9580  164.0230 N.ar    1  UNL1       -0.2357
     12 C         142.9171  144.7823  164.2229 C.ar    1  UNL1        0.0988
     13 C         143.7098  144.7444  162.9499 C.ar    1  UNL1        0.0565
     14 C         142.9624  143.8968  161.9635 C.ar    1  UNL1        0.1557
     15 N         141.7078  143.4108  162.6267 N.ar    1  UNL1       -0.1534
     16 C         140.6035  143.7224  165.0408 C.3     1  UNL1        0.2423
     17 P         140.4563  142.3725  165.6781 P.3     1  UNL1        0.3677
     18 O         140.3092  141.0227  166.3155 O.2     1  UNL1       -0.2557
     19 O         139.6184  141.9172  164.5203 O.3     1  UNL1       -0.2928
     20 C         137.3015  141.8398  163.3473 C.3     1  UNL1        0.0352
     21 C         138.1238  142.0245  164.5882 C.3     1  UNL1        0.1515
     22 O         141.2943  142.8280  166.8360 O.3     1  UNL1       -0.2928
     23 C         140.9519  142.3880  168.2285 C.3     1  UNL1        0.1515
     24 C         140.3422  143.3608  169.1939 C.3     1  UNL1        0.0352
     25 O         143.3149  139.7272  155.7704 O.3     1  UNL1       -0.4518
     26 C         143.3702  138.2579  156.0672 C.ar    1  UNL1        0.1644
     27 C         144.1409  137.3392  155.1661 C.ar    1  UNL1        0.0408
     28 C         144.1961  135.8699  155.4629 C.ar    1  UNL1        0.0269
     29 C         143.4806  135.3193  156.6608 C.ar    1  UNL1        0.1349
     30 N         142.7099  136.2380  157.5618 N.ar    1  UNL1       -0.2361
     31 C         142.6547  137.7073  157.2650 C.ar    1  UNL1        0.1363
     32 C         143.5358  133.8500  156.9576 C.2     1  UNL1        0.2668
     33 O         144.4759  133.3312  158.0050 O.2     1  UNL1       -0.2683
     34 N         142.6509  132.8994  156.2069 N.am    1  UNL1       -0.2747
     35 C         141.6188  133.0389  155.1274 C.3     1  UNL1        0.0955
     36 C         141.3995  131.5551  155.1454 C.3     1  UNL1        0.0430
     37 C         142.4316  131.4157  156.2250 C.3     1  UNL1        0.0955
     38 O         147.3426  142.9673  156.2989 O.3     1  UNL1       -0.4791
     39 C         147.5813  142.9518  154.8182 C.3     1  UNL1        0.1661
     40 C         146.9222  143.9750  153.9414 C.3     1  UNL1        0.0472
     41 C         148.4793  141.9131  154.2141 C.3     1  UNL1        0.0472
@<TRIPOS>BOND
     1    20    21    1
     2    21    19    1
     3    19    17    1
     4    17    18    2
     5    17    16    1
     6    16    11    1
     7    11    12   ar
     8    12    13   ar
     9    13    14   ar
    10    14     7    1
    11     7     8   am
    12     8     9    2
    13     8     1    1
    14     1     2   ar
    15     2     3   ar
    16     3    25    1
    17    25    26    1
    18    26    27   ar
    19    27    28   ar
    20    28    29   ar
    21    29    32    1
    22    32    33    2
    23    32    34   am
    24    34    35    1
    25    35    36    1
    26    36    37    1
    27    29    30   ar
    28    30    31   ar
    29     3     4   ar
    30     4     5   ar
    31     5    38    1
    32    38    39    1
    33    39    40    1
    34    39    41    1
    35     5     6   ar
    36    14    15   ar
    37    17    22    1
    38    22    23    1
    39    23    24    1
    40    15    11   ar
    41     6     1   ar
    42    31    26   ar
    43    37    34    1
    44     7    10    1
@<TRIPOS>MOLECULE
*****
 41 44 0 0 0
SMALL
GASTEIGER

@<TRIPOS>ATOM
      1 C         143.4055  139.8263  158.2767 C.ar    1  UNL1        0.0597
      2 C         143.0997  138.8642  157.1673 C.ar    1  UNL1        0.0422
      3 C         143.6153  139.1269  155.7834 C.ar    1  UNL1        0.1485
      4 C         144.4366  140.3517  155.5089 C.ar    1  UNL1        0.0743
      5 C         144.7424  141.3138  156.6183 C.ar    1  UNL1        0.1416
      6 C         144.2268  141.0511  158.0022 C.ar    1  UNL1        0.0416
      7 N         141.5843  138.8506  159.8518 N.am    1  UNL1       -0.2644
      8 C         142.8900  139.5636  159.6607 C.2     1  UNL1        0.2508
      9 O         143.6802  140.0140  160.8534 O.2     1  UNL1       -0.2698
     10 H         141.0656  138.5550  159.0690 H       1  UNL1        0.1566
     11 N         139.7321  138.6896  163.2591 N.ar    1  UNL1       -0.2357
     12 C         140.8188  137.6777  163.4719 C.ar    1  UNL1        0.0988
     13 C         141.6450  137.6149  162.2213 C.ar    1  UNL1        0.0565
     14 C         141.0687  138.5879  161.2358 C.ar    1  UNL1        0.1557
     15 N         139.8866  139.2521  161.8772 N.ar    1  UNL1       -0.1534
     16 C         138.6763  139.0718  164.2536 C.3     1  UNL1        0.2423
     17 P         138.5888  140.4850  164.7488 P.3     1  UNL1        0.3677
     18 O         138.5011  141.8982  165.2439 O.2     1  UNL1       -0.2557
     19 O         139.6156  140.1808  165.7990 O.3     1  UNL1       -0.2928
     20 C         139.6972  140.1881  168.3957 C.3     1  UNL1        0.0352
     21 C         139.1931  139.5949  167.1136 C.3     1  UNL1        0.1515
     22 O         137.5618  140.7892  163.6985 O.3     1  UNL1       -0.2928
     23 C         137.4746  142.1669  163.1117 C.3     1  UNL1        0.1515
     24 C         138.0302  142.4364  161.7447 C.3     1  UNL1        0.0352
     25 O         143.3095  138.1648  154.6739 O.3     1  UNL1       -0.4518
     26 C         143.0098  136.7289  154.9877 C.ar    1  UNL1        0.1644
     27 C         144.1079  135.8171  155.4492 C.ar    1  UNL1        0.0408
     28 C         143.8082  134.3812  155.7629 C.ar    1  UNL1        0.0269
     29 C         142.4104  133.8572  155.6152 C.ar    1  UNL1        0.1349
     30 N         141.3124  134.7690  155.1537 N.ar    1  UNL1       -0.2361
     31 C         141.6121  136.2049  154.8400 C.ar    1  UNL1        0.1363
     32 C         142.1107  132.4213  155.9290 C.2     1  UNL1        0.2668
     33 O         142.5774  131.8231  157.2229 O.2     1  UNL1       -0.2683
     34 N         141.3443  131.5836  154.9487 N.am    1  UNL1       -0.2747
     35 C         140.7341  131.8216  153.5992 C.3     1  UNL1        0.0955
     36 C         140.2604  130.3988  153.5625 C.3     1  UNL1        0.0430
     37 C         140.8705  130.1608  154.9120 C.3     1  UNL1        0.0955
     38 O         145.5637  142.5386  156.3439 O.3     1  UNL1       -0.4791
     39 C         147.0369  142.5323  156.6257 C.3     1  UNL1        0.1661
     40 C         147.5674  143.2008  157.8593 C.3     1  UNL1        0.0472
     41 C         147.9798  141.8576  155.6739 C.3     1  UNL1        0.0472
@<TRIPOS>BOND
     1    20    21    1
     2    21    19    1
     3    19    17    1
     4    17    18    2
     5    17    16    1
     6    16    11    1
     7    11    12   ar
     8    12    13   ar
     9    13    14   ar
    10    14     7    1
    11     7     8   am
    12     8     9    2
    13     8     1    1
    14     1     2   ar
    15     2     3   ar
    16     3    25    1
    17    25    26    1
    18    26    27   ar
    19    27    28   ar
    20    28    29   ar
    21    29    32    1
    22    32    33    2
    23    32    34   am
    24    34    35    1
    25    35    36    1
    26    36    37    1
    27    29    30   ar
    28    30    31   ar
    29     3     4   ar
    30     4     5   ar
    31     5    38    1
    32    38    39    1
    33    39    40    1
    34    39    41    1
    35     5     6   ar
    36    14    15   ar
    37    17    22    1
    38    22    23    1
    39    23    24    1
    40    15    11   ar
    41     6     1   ar
    42    31    26   ar
    43    37    34    1
    44     7    10    1
@<TRIPOS>MOLECULE
*****
 41 44 0 0 0
SMALL
GASTEIGER

@<TRIPOS>ATOM
      1 C         141.4066  138.3721  157.8705 C.ar    1  UNL1        0.0597
      2 C         142.5151  137.4793  157.3971 C.ar    1  UNL1        0.0422
      3 C         142.2445  136.4371  156.3529 C.ar    1  UNL1        0.1485
      4 C         140.8654  136.2877  155.7820 C.ar    1  UNL1        0.0743
      5 C         139.7570  137.1805  156.2554 C.ar    1  UNL1        0.1416
      6 C         140.0276  138.2227  157.2996 C.ar    1  UNL1        0.0416
      7 N         140.6178  139.7643  159.9174 N.am    1  UNL1       -0.2644
      8 C         141.6772  139.4144  158.9148 C.2     1  UNL1        0.2508
      9 O         143.0072  140.1068  158.9564 O.2     1  UNL1       -0.2698
     10 H         139.7449  139.3098  159.8901 H       1  UNL1        0.1566
     11 N         141.2322  142.9481  162.0509 N.ar    1  UNL1       -0.2357
     12 C         141.3774  141.8727  163.0866 C.ar    1  UNL1        0.0988
     13 C         141.1649  140.5491  162.4134 C.ar    1  UNL1        0.0565
     14 C         140.8884  140.8066  160.9617 C.ar    1  UNL1        0.1557
     15 N         140.9301  142.2891  160.7377 N.ar    1  UNL1       -0.1534
     16 C         141.3658  144.4233  162.2870 C.3     1  UNL1        0.2423
     17 P         140.2601  145.3513  161.8793 P.3     1  UNL1        0.3677
     18 O         139.1544  146.2793  161.4716 O.2     1  UNL1       -0.2557
     19 O         139.5431  145.0617  163.1646 O.3     1  UNL1       -0.2928
     20 C         137.8334  143.2307  162.4760 C.3     1  UNL1        0.0352
     21 C         138.1361  144.5422  163.1379 C.3     1  UNL1        0.1515
     22 O         140.9772  145.6409  160.5940 O.3     1  UNL1       -0.2928
     23 C         140.2606  145.4897  159.2849 C.3     1  UNL1        0.1515
     24 C         141.0394  145.2326  158.0289 C.3     1  UNL1        0.0352
     25 O         143.3529  135.5442  155.8794 O.3     1  UNL1       -0.4518
     26 C         143.1748  134.0549  155.8950 C.ar    1  UNL1        0.1644
     27 C         143.0666  133.2989  154.6039 C.ar    1  UNL1        0.0408
     28 C         142.8885  131.8096  154.6195 C.ar    1  UNL1        0.0269
     29 C         142.8186  131.0762  155.9262 C.ar    1  UNL1        0.1349
     30 N         142.9268  131.8322  157.2172 N.ar    1  UNL1       -0.2361
     31 C         143.1049  133.3215  157.2016 C.ar    1  UNL1        0.1363
     32 C         142.6405  129.5869  155.9418 C.2     1  UNL1        0.2668
     33 O         143.7485  128.7042  156.4346 O.2     1  UNL1       -0.2683
     34 N         141.3542  128.9804  155.4645 N.am    1  UNL1       -0.2747
     35 C         140.0650  129.5199  154.9195 C.3     1  UNL1        0.0955
     36 C         139.5352  128.1226  154.7896 C.3     1  UNL1        0.0430
     37 C         140.8244  127.5831  155.3346 C.3     1  UNL1        0.0955
     38 O         138.3779  137.0311  155.6845 O.3     1  UNL1       -0.4791
     39 C         137.9578  137.8648  154.5105 C.3     1  UNL1        0.1661
     40 C         136.5142  137.9178  154.1064 C.3     1  UNL1        0.0472
     41 C         138.9813  138.6456  153.7404 C.3     1  UNL1        0.0472
@<TRIPOS>BOND
     1    20    21    1
     2    21    19    1
     3    19    17    1
     4    17    18    2
     5    17    16    1
     6    16    11    1
     7    11    12   ar
     8    12    13   ar
     9    13    14   ar
    10    14     7    1
    11     7     8   am
    12     8     9    2
    13     8     1    1
    14     1     2   ar
    15     2     3   ar
    16     3    25    1
    17    25    26    1
    18    26    27   ar
    19    27    28   ar
    20    28    29   ar
    21    29    32    1
    22    32    33    2
    23    32    34   am
    24    34    35    1
    25    35    36    1
    26    36    37    1
    27    29    30   ar
    28    30    31   ar
    29     3     4   ar
    30     4     5   ar
    31     5    38    1
    32    38    39    1
    33    39    40    1
    34    39    41    1
    35     5     6   ar
    36    14    15   ar
    37    17    22    1
    38    22    23    1
    39    23    24    1
    40    15    11   ar
    41     6     1   ar
    42    31    26   ar
    43    37    34    1
    44     7    10    1
