@<TRIPOS>MOLECULE
*****
 31 35 0 0 0
SMALL
GASTEIGER

@<TRIPOS>ATOM
      1 C         143.6991  140.2423  159.3840 C.ar    1  UNL1        0.1482
      2 C         143.7319  141.6121  158.7738 C.ar    1  UNL1        0.0581
      3 C         143.6582  142.8261  159.6517 C.ar    1  UNL1        0.1020
      4 N         143.5517  142.6703  161.1398 N.ar    1  UNL1       -0.2436
      5 C         143.5189  141.3004  161.7500 C.ar    1  UNL1        0.0842
      6 C         143.4124  141.1445  163.2380 C.ar    1  UNL1        0.0193
      7 C         143.3796  139.7747  163.8482 C.ar    1  UNL1        0.0045
      8 C         143.4534  138.5606  162.9703 C.ar    1  UNL1        0.0003
      9 C         143.5599  138.7165  161.4822 C.ar    1  UNL1        0.0045
     10 C         143.5926  140.0864  160.8721 C.ar    1  UNL1        0.0522
     11 C         143.2731  139.6188  165.3363 C.ar    1  UNL1        0.0397
     12 C         143.5355  138.3621  166.1122 C.ar    1  UNL1        0.1216
     13 N         143.3101  138.6589  167.5652 N.ar    1  UNL1       -0.1677
     14 N         142.9084  140.0990  167.6873 N.ar    1  UNL1       -0.2513
     15 C         142.8856  140.6922  166.3097 C.ar    1  UNL1        0.0965
     16 C         142.5862  140.8192  168.9629 C.3     1  UNL1        0.1080
     17 C         141.6644  140.1918  169.9662 C.3     1  UNL1        0.0415
     18 C         141.3422  140.9120  171.2419 C.3     1  UNL1        0.0706
     19 N         141.9417  142.2597  171.5143 N.3     1  UNL1       -0.2974
     20 C         142.8635  142.8872  170.5109 C.3     1  UNL1        0.0706
     21 C         143.1857  142.1670  169.2353 C.3     1  UNL1        0.0415
     22 H         142.4662  142.1781  172.3853 H       1  UNL1        0.1232
     23 O         143.7729  139.0282  158.5061 O.3     1  UNL1       -0.4534
     24 O         138.7608  136.7240  156.1459 O.3     1  UNL1       -0.5055
     25 C         140.0138  137.3001  156.7360 C.ar    1  UNL1        0.1339
     26 C         141.3478  136.7106  156.3853 C.ar    1  UNL1        0.0397
     27 C         142.6008  137.2867  156.9753 C.ar    1  UNL1        0.0406
     28 C         142.5198  138.4522  157.9160 C.ar    1  UNL1        0.1455
     29 C         141.1858  139.0417  158.2668 C.ar    1  UNL1        0.0406
     30 C         139.9328  138.4656  157.6768 C.ar    1  UNL1        0.0397
     31 H         138.8114  135.9960  155.5583 H       1  UNL1        0.2922
@<TRIPOS>BOND
     1    24    25    1
     2    25    26   ar
     3    26    27   ar
     4    27    28   ar
     5    28    23    1
     6    23     1    1
     7     1     2   ar
     8     2     3   ar
     9     3     4   ar
    10     4     5   ar
    11     5     6   ar
    12     6     7   ar
    13     7    11    1
    14    11    12   ar
    15    12    13   ar
    16    13    14   ar
    17    14    16    1
    18    16    17    1
    19    17    18    1
    20    18    19    1
    21    19    20    1
    22    20    21    1
    23    14    15   ar
    24     7     8   ar
    25     8     9   ar
    26     9    10   ar
    27    28    29   ar
    28    29    30   ar
    29    30    25   ar
    30    10     1   ar
    31    10     5   ar
    32    15    11   ar
    33    21    16    1
    34    24    31    1
    35    19    22    1
@<TRIPOS>MOLECULE
*****
 31 35 0 0 0
SMALL
GASTEIGER

@<TRIPOS>ATOM
      1 C         139.9462  143.1435  164.6707 C.ar    1  UNL1        0.1482
      2 C         138.8427  144.1588  164.7067 C.ar    1  UNL1        0.0581
      3 C         137.9141  144.2988  163.5371 C.ar    1  UNL1        0.1020
      4 N         138.0890  143.4236  162.3315 N.ar    1  UNL1       -0.2436
      5 C         139.1926  142.4084  162.2956 C.ar    1  UNL1        0.0842
      6 C         139.3676  141.5332  161.0900 C.ar    1  UNL1        0.0193
      7 C         140.4711  140.5179  161.0540 C.ar    1  UNL1        0.0045
      8 C         141.3998  140.3778  162.2237 C.ar    1  UNL1        0.0003
      9 C         141.2248  141.2530  163.4293 C.ar    1  UNL1        0.0045
     10 C         140.1212  142.2683  163.4652 C.ar    1  UNL1        0.0522
     11 C         140.6461  139.6427  159.8485 C.ar    1  UNL1        0.0397
     12 C         139.5463  138.9792  159.0735 C.ar    1  UNL1        0.1216
     13 N         140.1721  138.2037  157.9523 N.ar    1  UNL1       -0.1677
     14 N         141.6585  138.3880  158.0342 N.ar    1  UNL1       -0.2513
     15 C         141.9514  139.2773  159.2061 C.ar    1  UNL1        0.0965
     16 C         142.6736  137.7882  157.1071 C.3     1  UNL1        0.1080
     17 C         142.8535  136.3000  157.0535 C.3     1  UNL1        0.0415
     18 C         143.8687  135.7001  156.1263 C.3     1  UNL1        0.0706
     19 N         144.7039  136.5885  155.2528 N.3     1  UNL1       -0.2974
     20 C         144.5240  138.0767  155.3064 C.3     1  UNL1        0.0706
     21 C         143.5089  138.6766  156.2335 C.3     1  UNL1        0.0415
     22 H         144.5265  136.3050  154.2892 H       1  UNL1        0.1232
     23 O         140.8749  143.0034  165.8404 O.3     1  UNL1       -0.4534
     24 O         139.1492  139.9181  170.6883 O.3     1  UNL1       -0.5055
     25 C         139.5806  140.6894  169.4764 C.ar    1  UNL1        0.1339
     26 C         139.5180  140.0518  168.1201 C.ar    1  UNL1        0.0397
     27 C         139.9495  140.8232  166.9081 C.ar    1  UNL1        0.0406
     28 C         140.4435  142.2321  167.0524 C.ar    1  UNL1        0.1455
     29 C         140.5061  142.8697  168.4087 C.ar    1  UNL1        0.0406
     30 C         140.0747  142.0984  169.6207 C.ar    1  UNL1        0.0397
     31 H         138.8406  139.0380  170.5982 H       1  UNL1        0.2922
@<TRIPOS>BOND
     1    24    25    1
     2    25    26   ar
     3    26    27   ar
     4    27    28   ar
     5    28    23    1
     6    23     1    1
     7     1     2   ar
     8     2     3   ar
     9     3     4   ar
    10     4     5   ar
    11     5     6   ar
    12     6     7   ar
    13     7    11    1
    14    11    12   ar
    15    12    13   ar
    16    13    14   ar
    17    14    16    1
    18    16    17    1
    19    17    18    1
    20    18    19    1
    21    19    20    1
    22    20    21    1
    23    14    15   ar
    24     7     8   ar
    25     8     9   ar
    26     9    10   ar
    27    28    29   ar
    28    29    30   ar
    29    30    25   ar
    30    10     1   ar
    31    10     5   ar
    32    15    11   ar
    33    21    16    1
    34    24    31    1
    35    19    22    1
@<TRIPOS>MOLECULE
*****
 31 35 0 0 0
SMALL
GASTEIGER

@<TRIPOS>ATOM
      1 C         138.7404  141.1135  159.6735 C.ar    1  UNL1        0.1482
      2 C         139.0540  140.0274  158.6876 C.ar    1  UNL1        0.0581
      3 C         139.4381  138.6613  159.1737 C.ar    1  UNL1        0.1020
      4 N         139.5086  138.3814  160.6456 N.ar    1  UNL1       -0.2436
      5 C         139.1950  139.4675  161.6315 C.ar    1  UNL1        0.0842
      6 C         139.2655  139.1876  163.1035 C.ar    1  UNL1        0.0193
      7 C         138.9519  140.2737  164.0893 C.ar    1  UNL1        0.0045
      8 C         138.5678  141.6398  163.6033 C.ar    1  UNL1        0.0003
      9 C         138.4973  141.9198  162.1313 C.ar    1  UNL1        0.0045
     10 C         138.8109  140.8336  161.1454 C.ar    1  UNL1        0.0522
     11 C         139.0225  139.9937  165.5613 C.ar    1  UNL1        0.0397
     12 C         138.0745  139.1316  166.3412 C.ar    1  UNL1        0.1216
     13 N         138.5195  139.1318  167.7737 N.ar    1  UNL1       -0.1677
     14 N         139.7424  139.9940  167.8791 N.ar    1  UNL1       -0.2513
     15 C         140.0533  140.5267  166.5118 C.ar    1  UNL1        0.0965
     16 C         140.5182  140.2742  169.1319 C.3     1  UNL1        0.1080
     17 C         141.8346  139.5945  169.3667 C.3     1  UNL1        0.0415
     18 C         142.6105  139.8747  170.6195 C.3     1  UNL1        0.0706
     19 N         142.0700  140.8346  171.6374 N.3     1  UNL1       -0.2974
     20 C         140.7537  141.5144  171.4026 C.3     1  UNL1        0.0706
     21 C         139.9778  141.2342  170.1499 C.3     1  UNL1        0.0415
     22 H         142.7668  141.5716  171.7462 H       1  UNL1        0.1232
     23 O         138.3563  142.4796  159.1874 O.3     1  UNL1       -0.4534
     24 O         142.6104  146.4373  157.6910 O.3     1  UNL1       -0.5055
     25 C         141.5469  145.4479  158.0651 C.ar    1  UNL1        0.1339
     26 C         141.1766  145.2535  159.5056 C.ar    1  UNL1        0.0397
     27 C         140.1131  144.2641  159.8797 C.ar    1  UNL1        0.0406
     28 C         139.4198  143.4691  158.8133 C.ar    1  UNL1        0.1455
     29 C         139.7901  143.6634  157.3727 C.ar    1  UNL1        0.0406
     30 C         140.8536  144.6528  156.9986 C.ar    1  UNL1        0.0397
     31 H         143.0435  146.9339  158.3572 H       1  UNL1        0.2922
@<TRIPOS>BOND
     1    24    25    1
     2    25    26   ar
     3    26    27   ar
     4    27    28   ar
     5    28    23    1
     6    23     1    1
     7     1     2   ar
     8     2     3   ar
     9     3     4   ar
    10     4     5   ar
    11     5     6   ar
    12     6     7   ar
    13     7    11    1
    14    11    12   ar
    15    12    13   ar
    16    13    14   ar
    17    14    16    1
    18    16    17    1
    19    17    18    1
    20    18    19    1
    21    19    20    1
    22    20    21    1
    23    14    15   ar
    24     7     8   ar
    25     8     9   ar
    26     9    10   ar
    27    28    29   ar
    28    29    30   ar
    29    30    25   ar
    30    10     1   ar
    31    10     5   ar
    32    15    11   ar
    33    21    16    1
    34    24    31    1
    35    19    22    1
@<TRIPOS>MOLECULE
*****
 31 35 0 0 0
SMALL
GASTEIGER

@<TRIPOS>ATOM
      1 C         140.1451  140.6708  165.8565 C.ar    1  UNL1        0.1482
      2 C         139.2200  139.9599  166.7992 C.ar    1  UNL1        0.0581
      3 C         138.4335  138.7736  166.3260 C.ar    1  UNL1        0.1020
      4 N         138.5721  138.2982  164.9101 N.ar    1  UNL1       -0.2436
      5 C         139.4972  139.0091  163.9674 C.ar    1  UNL1        0.0842
      6 C         139.6358  138.5338  162.5515 C.ar    1  UNL1        0.0193
      7 C         140.5609  139.2447  161.6088 C.ar    1  UNL1        0.0045
      8 C         141.3475  140.4311  162.0820 C.ar    1  UNL1        0.0003
      9 C         141.2089  140.9064  163.4979 C.ar    1  UNL1        0.0045
     10 C         140.2837  140.1954  164.4406 C.ar    1  UNL1        0.0522
     11 C         140.6994  138.7693  160.1929 C.ar    1  UNL1        0.0397
     12 C         139.5828  138.6043  159.2049 C.ar    1  UNL1        0.1216
     13 N         140.1723  138.1085  157.9177 N.ar    1  UNL1       -0.1677
     14 N         141.6531  137.9671  158.1101 N.ar    1  UNL1       -0.2513
     15 C         141.9789  138.3755  159.5162 C.ar    1  UNL1        0.0965
     16 C         142.6356  137.4994  157.0778 C.3     1  UNL1        0.1080
     17 C         142.8864  136.0323  156.8915 C.3     1  UNL1        0.0415
     18 C         143.8689  135.5645  155.8591 C.3     1  UNL1        0.0706
     19 N         144.6006  136.5639  155.0129 N.3     1  UNL1       -0.2974
     20 C         144.3497  138.0310  155.1992 C.3     1  UNL1        0.0706
     21 C         143.3672  138.4988  156.2316 C.3     1  UNL1        0.0415
     22 H         144.3762  136.3478  154.0417 H       1  UNL1        0.1232
     23 O         140.9317  141.8572  166.3297 O.3     1  UNL1       -0.4534
     24 O         142.2795  142.4360  172.1477 O.3     1  UNL1       -0.5055
     25 C         141.9426  142.2913  170.6932 C.ar    1  UNL1        0.1339
     26 C         142.7254  141.3445  169.8326 C.ar    1  UNL1        0.0397
     27 C         142.3884  141.1998  168.3781 C.ar    1  UNL1        0.0406
     28 C         141.2687  142.0019  167.7842 C.ar    1  UNL1        0.1455
     29 C         140.4858  142.9488  168.6448 C.ar    1  UNL1        0.0406
     30 C         140.8228  143.0935  170.0993 C.ar    1  UNL1        0.0397
     31 H         142.9790  141.9349  172.5187 H       1  UNL1        0.2922
@<TRIPOS>BOND
     1    24    25    1
     2    25    26   ar
     3    26    27   ar
     4    27    28   ar
     5    28    23    1
     6    23     1    1
     7     1     2   ar
     8     2     3   ar
     9     3     4   ar
    10     4     5   ar
    11     5     6   ar
    12     6     7   ar
    13     7    11    1
    14    11    12   ar
    15    12    13   ar
    16    13    14   ar
    17    14    16    1
    18    16    17    1
    19    17    18    1
    20    18    19    1
    21    19    20    1
    22    20    21    1
    23    14    15   ar
    24     7     8   ar
    25     8     9   ar
    26     9    10   ar
    27    28    29   ar
    28    29    30   ar
    29    30    25   ar
    30    10     1   ar
    31    10     5   ar
    32    15    11   ar
    33    21    16    1
    34    24    31    1
    35    19    22    1
@<TRIPOS>MOLECULE
*****
 31 35 0 0 0
SMALL
GASTEIGER

@<TRIPOS>ATOM
      1 C         138.6444  139.9874  159.8168 C.ar    1  UNL1        0.1482
      2 C         138.5211  141.3252  159.1497 C.ar    1  UNL1        0.0581
      3 C         138.4756  142.5749  159.9780 C.ar    1  UNL1        0.1020
      4 N         138.5533  142.4868  161.4734 N.ar    1  UNL1       -0.2436
      5 C         138.6766  141.1490  162.1405 C.ar    1  UNL1        0.0842
      6 C         138.7543  141.0609  163.6359 C.ar    1  UNL1        0.0193
      7 C         138.8775  139.7231  164.3030 C.ar    1  UNL1        0.0045
      8 C         138.9230  138.4733  163.4746 C.ar    1  UNL1        0.0003
      9 C         138.8453  138.5614  161.9792 C.ar    1  UNL1        0.0045
     10 C         138.7221  139.8993  161.3122 C.ar    1  UNL1        0.0522
     11 C         138.9553  139.6350  165.7983 C.ar    1  UNL1        0.0397
     12 C         137.9426  138.9895  166.6974 C.ar    1  UNL1        0.1216
     13 N         138.4208  139.1325  168.1119 N.ar    1  UNL1       -0.1677
     14 N         139.7289  139.8662  168.0872 N.ar    1  UNL1       -0.2513
     15 C         140.0592  140.1767  166.6573 C.ar    1  UNL1        0.0965
     16 C         140.5606  140.2262  169.2824 C.3     1  UNL1        0.1080
     17 C         141.8700  139.5343  169.5208 C.3     1  UNL1        0.0415
     18 C         142.7017  139.8942  170.7160 C.3     1  UNL1        0.0706
     19 N         142.2241  140.9460  171.6729 N.3     1  UNL1       -0.2974
     20 C         140.9147  141.6378  171.4345 C.3     1  UNL1        0.0706
     21 C         140.0829  141.2779  170.2393 C.3     1  UNL1        0.0415
     22 H         142.9408  141.6714  171.6948 H       1  UNL1        0.1232
     23 O         138.6899  138.7376  158.9885 O.3     1  UNL1       -0.4534
     24 O         143.8482  136.9961  156.4668 O.3     1  UNL1       -0.5055
     25 C         142.5586  137.4315  157.0972 C.ar    1  UNL1        0.1339
     26 C         141.2600  137.2057  156.3813 C.ar    1  UNL1        0.0397
     27 C         139.9704  137.6410  157.0117 C.ar    1  UNL1        0.0406
     28 C         139.9795  138.3023  158.3580 C.ar    1  UNL1        0.1455
     29 C         141.2781  138.5281  159.0740 C.ar    1  UNL1        0.0406
     30 C         142.5677  138.0928  158.4436 C.ar    1  UNL1        0.0397
     31 H         143.8426  136.5831  155.6258 H       1  UNL1        0.2922
@<TRIPOS>BOND
     1    24    25    1
     2    25    26   ar
     3    26    27   ar
     4    27    28   ar
     5    28    23    1
     6    23     1    1
     7     1     2   ar
     8     2     3   ar
     9     3     4   ar
    10     4     5   ar
    11     5     6   ar
    12     6     7   ar
    13     7    11    1
    14    11    12   ar
    15    12    13   ar
    16    13    14   ar
    17    14    16    1
    18    16    17    1
    19    17    18    1
    20    18    19    1
    21    19    20    1
    22    20    21    1
    23    14    15   ar
    24     7     8   ar
    25     8     9   ar
    26     9    10   ar
    27    28    29   ar
    28    29    30   ar
    29    30    25   ar
    30    10     1   ar
    31    10     5   ar
    32    15    11   ar
    33    21    16    1
    34    24    31    1
    35    19    22    1
@<TRIPOS>MOLECULE
*****
 31 35 0 0 0
SMALL
GASTEIGER

@<TRIPOS>ATOM
      1 C         138.9102  139.5435  165.8673 C.ar    1  UNL1        0.1482
      2 C         138.8601  138.1159  165.4097 C.ar    1  UNL1        0.0581
      3 C         139.0038  137.7899  163.9527 C.ar    1  UNL1        0.1020
      4 N         139.1976  138.8916  162.9532 N.ar    1  UNL1       -0.2436
      5 C         139.2477  140.3191  163.4108 C.ar    1  UNL1        0.0842
      6 C         139.4415  141.4208  162.4114 C.ar    1  UNL1        0.0193
      7 C         139.4915  142.8483  162.8690 C.ar    1  UNL1        0.0045
      8 C         139.3478  143.1744  164.3261 C.ar    1  UNL1        0.0003
      9 C         139.1540  142.0728  165.3256 C.ar    1  UNL1        0.0045
     10 C         139.1040  140.6451  164.8679 C.ar    1  UNL1        0.0522
     11 C         139.6853  143.9500  161.8696 C.ar    1  UNL1        0.0397
     12 C         139.4700  145.4136  162.1178 C.ar    1  UNL1        0.1216
     13 N         139.7800  146.1496  160.8480 N.ar    1  UNL1       -0.1677
     14 N         140.1870  145.1409  159.8151 N.ar    1  UNL1       -0.2513
     15 C         140.1285  143.7815  160.4465 C.ar    1  UNL1        0.0965
     16 C         140.5830  145.4392  158.3995 C.3     1  UNL1        0.1080
     17 C         139.6830  146.2629  157.5267 C.3     1  UNL1        0.0415
     18 C         140.0790  146.5613  156.1111 C.3     1  UNL1        0.0706
     19 N         141.3748  146.0361  155.5681 N.3     1  UNL1       -0.2974
     20 C         142.2748  145.2124  156.4409 C.3     1  UNL1        0.0706
     21 C         141.8789  144.9140  157.8566 C.3     1  UNL1        0.0415
     22 H         141.9173  146.8455  155.2665 H       1  UNL1        0.1232
     23 O         138.7665  139.8695  167.3245 O.3     1  UNL1       -0.4534
     24 O         143.6281  140.1490  170.8297 O.3     1  UNL1       -0.5055
     25 C         142.4127  140.0792  169.9534 C.ar    1  UNL1        0.1339
     26 C         141.0467  140.2419  170.5512 C.ar    1  UNL1        0.0397
     27 C         139.8313  140.1721  169.6749 C.ar    1  UNL1        0.0406
     28 C         139.9819  139.9394  168.2008 C.ar    1  UNL1        0.1455
     29 C         141.3480  139.7766  167.6028 C.ar    1  UNL1        0.0406
     30 C         142.5634  139.8465  168.4792 C.ar    1  UNL1        0.0397
     31 H         143.5340  140.2944  171.7505 H       1  UNL1        0.2922
@<TRIPOS>BOND
     1    24    25    1
     2    25    26   ar
     3    26    27   ar
     4    27    28   ar
     5    28    23    1
     6    23     1    1
     7     1     2   ar
     8     2     3   ar
     9     3     4   ar
    10     4     5   ar
    11     5     6   ar
    12     6     7   ar
    13     7    11    1
    14    11    12   ar
    15    12    13   ar
    16    13    14   ar
    17    14    16    1
    18    16    17    1
    19    17    18    1
    20    18    19    1
    21    19    20    1
    22    20    21    1
    23    14    15   ar
    24     7     8   ar
    25     8     9   ar
    26     9    10   ar
    27    28    29   ar
    28    29    30   ar
    29    30    25   ar
    30    10     1   ar
    31    10     5   ar
    32    15    11   ar
    33    21    16    1
    34    24    31    1
    35    19    22    1
@<TRIPOS>MOLECULE
*****
 31 35 0 0 0
SMALL
GASTEIGER

@<TRIPOS>ATOM
      1 C         141.5682  140.1786  166.0551 C.ar    1  UNL1        0.1482
      2 C         142.4601  138.9946  165.8260 C.ar    1  UNL1        0.0581
      3 C         143.1039  138.7886  164.4870 C.ar    1  UNL1        0.1020
      4 N         142.8557  139.7665  163.3770 N.ar    1  UNL1       -0.2436
      5 C         141.9638  140.9505  163.6061 C.ar    1  UNL1        0.0842
      6 C         141.7156  141.9285  162.4962 C.ar    1  UNL1        0.0193
      7 C         140.8237  143.1125  162.7252 C.ar    1  UNL1        0.0045
      8 C         140.1798  143.3186  164.0643 C.ar    1  UNL1        0.0003
      9 C         140.4280  142.3406  165.1743 C.ar    1  UNL1        0.0045
     10 C         141.3200  141.1566  164.9451 C.ar    1  UNL1        0.0522
     11 C         140.5755  144.0904  161.6153 C.ar    1  UNL1        0.0397
     12 C         139.8179  145.3801  161.7294 C.ar    1  UNL1        0.1216
     13 N         139.8155  146.0371  160.3810 N.ar    1  UNL1       -0.1677
     14 N         140.5716  145.1537  159.4335 N.ar    1  UNL1       -0.2513
     15 C         141.0413  143.9506  160.1963 C.ar    1  UNL1        0.0965
     16 C         140.8153  145.4256  157.9786 C.3     1  UNL1        0.1080
     17 C         141.9553  144.7550  157.2710 C.3     1  UNL1        0.0415
     18 C         142.1990  145.0269  155.8161 C.3     1  UNL1        0.0706
     19 N         141.3027  145.9693  155.0689 N.3     1  UNL1       -0.2974
     20 C         140.1626  146.6399  155.7765 C.3     1  UNL1        0.0706
     21 C         139.9189  146.3680  157.2314 C.3     1  UNL1        0.0415
     22 H         140.8991  145.4409  154.2954 H       1  UNL1        0.1232
     23 O         140.9244  140.3847  167.3942 O.3     1  UNL1       -0.4534
     24 O         143.4233  144.1048  171.3836 O.3     1  UNL1       -0.5055
     25 C         142.7986  143.1748  170.3863 C.ar    1  UNL1        0.1339
     26 C         141.3924  143.4097  169.9201 C.ar    1  UNL1        0.0397
     27 C         140.7676  142.4796  168.9228 C.ar    1  UNL1        0.0406
     28 C         141.5491  141.3147  168.3915 C.ar    1  UNL1        0.1455
     29 C         142.9554  141.0798  168.8577 C.ar    1  UNL1        0.0406
     30 C         143.5802  142.0098  169.8550 C.ar    1  UNL1        0.0397
     31 H         142.9352  144.8325  171.7155 H       1  UNL1        0.2922
@<TRIPOS>BOND
     1    24    25    1
     2    25    26   ar
     3    26    27   ar
     4    27    28   ar
     5    28    23    1
     6    23     1    1
     7     1     2   ar
     8     2     3   ar
     9     3     4   ar
    10     4     5   ar
    11     5     6   ar
    12     6     7   ar
    13     7    11    1
    14    11    12   ar
    15    12    13   ar
    16    13    14   ar
    17    14    16    1
    18    16    17    1
    19    17    18    1
    20    18    19    1
    21    19    20    1
    22    20    21    1
    23    14    15   ar
    24     7     8   ar
    25     8     9   ar
    26     9    10   ar
    27    28    29   ar
    28    29    30   ar
    29    30    25   ar
    30    10     1   ar
    31    10     5   ar
    32    15    11   ar
    33    21    16    1
    34    24    31    1
    35    19    22    1
@<TRIPOS>MOLECULE
*****
 31 35 0 0 0
SMALL
GASTEIGER

@<TRIPOS>ATOM
      1 C         139.4690  139.7123  165.0997 C.ar    1  UNL1        0.1482
      2 C         138.7666  138.3962  164.9436 C.ar    1  UNL1        0.0581
      3 C         138.8388  137.6575  163.6401 C.ar    1  UNL1        0.1020
      4 N         139.6135  138.2350  162.4928 N.ar    1  UNL1       -0.2436
      5 C         140.3159  139.5511  162.6489 C.ar    1  UNL1        0.0842
      6 C         141.0906  140.1286  161.5015 C.ar    1  UNL1        0.0193
      7 C         141.7930  141.4447  161.6577 C.ar    1  UNL1        0.0045
      8 C         141.7208  142.1834  162.9612 C.ar    1  UNL1        0.0003
      9 C         140.9461  141.6059  164.1086 C.ar    1  UNL1        0.0045
     10 C         140.2437  140.2898  163.9524 C.ar    1  UNL1        0.0522
     11 C         142.5677  142.0221  160.5103 C.ar    1  UNL1        0.0397
     12 C         142.4491  143.4209  159.9816 C.ar    1  UNL1        0.1216
     13 N         143.4051  143.5654  158.8347 N.ar    1  UNL1       -0.1677
     14 N         144.1145  142.2561  158.6547 N.ar    1  UNL1       -0.2513
     15 C         143.5970  141.3023  159.6903 C.ar    1  UNL1        0.0965
     16 C         145.1582  141.9537  157.6207 C.3     1  UNL1        0.1080
     17 C         146.4213  142.7614  157.5715 C.3     1  UNL1        0.0415
     18 C         147.4650  142.4590  156.5375 C.3     1  UNL1        0.0706
     19 N         147.2457  141.3491  155.5527 N.3     1  UNL1       -0.2974
     20 C         145.9826  140.5415  155.6019 C.3     1  UNL1        0.0706
     21 C         144.9388  140.8438  156.6359 C.3     1  UNL1        0.0415
     22 H         148.0187  140.6941  155.6702 H       1  UNL1        0.1232
     23 O         139.3968  140.4510  166.4033 O.3     1  UNL1       -0.4534
     24 O         143.2270  139.1157  170.8244 O.3     1  UNL1       -0.5055
     25 C         142.2695  139.4496  169.7191 C.ar    1  UNL1        0.1339
     26 C         142.7253  139.3987  168.2910 C.ar    1  UNL1        0.0397
     27 C         141.7677  139.7325  167.1857 C.ar    1  UNL1        0.0406
     28 C         140.3543  140.1172  167.5086 C.ar    1  UNL1        0.1455
     29 C         139.8984  140.1681  168.9367 C.ar    1  UNL1        0.0406
     30 C         140.8560  139.8343  170.0420 C.ar    1  UNL1        0.0397
     31 H         144.1099  138.8754  170.6227 H       1  UNL1        0.2922
@<TRIPOS>BOND
     1    24    25    1
     2    25    26   ar
     3    26    27   ar
     4    27    28   ar
     5    28    23    1
     6    23     1    1
     7     1     2   ar
     8     2     3   ar
     9     3     4   ar
    10     4     5   ar
    11     5     6   ar
    12     6     7   ar
    13     7    11    1
    14    11    12   ar
    15    12    13   ar
    16    13    14   ar
    17    14    16    1
    18    16    17    1
    19    17    18    1
    20    18    19    1
    21    19    20    1
    22    20    21    1
    23    14    15   ar
    24     7     8   ar
    25     8     9   ar
    26     9    10   ar
    27    28    29   ar
    28    29    30   ar
    29    30    25   ar
    30    10     1   ar
    31    10     5   ar
    32    15    11   ar
    33    21    16    1
    34    24    31    1
    35    19    22    1
@<TRIPOS>MOLECULE
*****
 31 35 0 0 0
SMALL
GASTEIGER

@<TRIPOS>ATOM
      1 C         139.9494  143.1473  164.8567 C.ar    1  UNL1        0.1482
      2 C         138.6383  143.8689  164.7556 C.ar    1  UNL1        0.0581
      3 C         137.8370  143.7946  163.4898 C.ar    1  UNL1        0.1020
      4 N         138.3468  142.9987  162.3250 N.ar    1  UNL1       -0.2436
      5 C         139.6578  142.2770  162.4261 C.ar    1  UNL1        0.0842
      6 C         140.1676  141.4811  161.2614 C.ar    1  UNL1        0.0193
      7 C         141.4787  140.7594  161.3624 C.ar    1  UNL1        0.0045
      8 C         142.2801  140.8337  162.6283 C.ar    1  UNL1        0.0003
      9 C         141.7703  141.6296  163.7930 C.ar    1  UNL1        0.0045
     10 C         140.4592  142.3513  163.6919 C.ar    1  UNL1        0.0522
     11 C         141.9884  139.9635  160.1977 C.ar    1  UNL1        0.0397
     12 C         143.3648  140.0475  159.6072 C.ar    1  UNL1        0.1216
     13 N         143.4383  139.0797  158.4635 N.ar    1  UNL1       -0.1677
     14 N         142.1074  138.3976  158.3471 N.ar    1  UNL1       -0.2513
     15 C         141.2114  138.9438  159.4190 C.ar    1  UNL1        0.0965
     16 C         141.7376  137.3528  157.3365 C.3     1  UNL1        0.1080
     17 C         142.6340  136.1700  157.1183 C.3     1  UNL1        0.0415
     18 C         142.2642  135.1251  156.1076 C.3     1  UNL1        0.0706
     19 N         140.9982  135.2630  155.3152 N.3     1  UNL1       -0.2974
     20 C         140.1018  136.4458  155.5334 C.3     1  UNL1        0.0706
     21 C         140.4716  137.4907  156.5441 C.3     1  UNL1        0.0415
     22 H         140.4395  134.4311  155.5056 H       1  UNL1        0.1232
     23 O         140.7508  143.2215  166.1225 O.3     1  UNL1       -0.4534
     24 O         139.2505  139.8133  170.8271 O.3     1  UNL1       -0.5055
     25 C         139.6255  140.6654  169.6510 C.ar    1  UNL1        0.1339
     26 C         139.5732  140.0951  168.2647 C.ar    1  UNL1        0.0397
     27 C         139.9483  140.9471  167.0885 C.ar    1  UNL1        0.0406
     28 C         140.3757  142.3695  167.2987 C.ar    1  UNL1        0.1455
     29 C         140.4280  142.9398  168.6851 C.ar    1  UNL1        0.0406
     30 C         140.0529  142.0878  169.8612 C.ar    1  UNL1        0.0397
     31 H         138.9835  138.9248  170.6958 H       1  UNL1        0.2922
@<TRIPOS>BOND
     1    24    25    1
     2    25    26   ar
     3    26    27   ar
     4    27    28   ar
     5    28    23    1
     6    23     1    1
     7     1     2   ar
     8     2     3   ar
     9     3     4   ar
    10     4     5   ar
    11     5     6   ar
    12     6     7   ar
    13     7    11    1
    14    11    12   ar
    15    12    13   ar
    16    13    14   ar
    17    14    16    1
    18    16    17    1
    19    17    18    1
    20    18    19    1
    21    19    20    1
    22    20    21    1
    23    14    15   ar
    24     7     8   ar
    25     8     9   ar
    26     9    10   ar
    27    28    29   ar
    28    29    30   ar
    29    30    25   ar
    30    10     1   ar
    31    10     5   ar
    32    15    11   ar
    33    21    16    1
    34    24    31    1
    35    19    22    1
