@<TRIPOS>MOLECULE
*****
 37 42 0 0 0
SMALL
GASTEIGER

@<TRIPOS>ATOM
      1 N         138.6037  140.7186  160.9335 N.3     1  UNL1       -0.2703
      2 C         139.2683  142.0510  160.7523 C.3     1  UNL1        0.0727
      3 C         139.2578  142.7179  159.4088 C.3     1  UNL1        0.0260
      4 C         138.5826  142.0523  158.2464 C.3     1  UNL1        0.0737
      5 C         137.9180  140.7198  158.4276 C.3     1  UNL1        0.0260
      6 C         137.9285  140.0530  159.7711 C.3     1  UNL1        0.0727
      7 C         137.9506  141.5110  156.9984 C.3     1  UNL1        0.0306
      8 C         138.1796  142.5017  155.8955 C.3     1  UNL1        0.0992
      9 N         138.9532  143.6553  156.4621 N.am    1  UNL1       -0.2523
     10 C         139.2022  143.3776  157.9149 C.2     1  UNL1        0.2289
     11 O         139.9411  144.2685  158.8689 O.2     1  UNL1       -0.2745
     12 C         139.3993  144.8728  155.7081 C.ar    1  UNL1        0.1034
     13 C         138.8666  146.2638  155.8852 C.ar    1  UNL1        0.0428
     14 C         139.5946  147.1638  154.9312 C.ar    1  UNL1        0.0909
     15 N         140.5771  146.3291  154.1645 N.ar    1  UNL1       -0.2079
     16 S         140.4564  144.9132  154.6447 S.2     1  UNL1        0.0282
     17 C         139.3780  148.6396  154.7718 C.ar    1  UNL1        0.0183
     18 C         139.8568  149.3385  153.5340 C.ar    1  UNL1        0.0015
     19 C         139.6402  150.8143  153.3746 C.ar    1  UNL1        0.0000
     20 C         138.9448  151.5910  154.4531 C.ar    1  UNL1        0.0000
     21 C         138.4660  150.8920  155.6910 C.ar    1  UNL1        0.0000
     22 C         138.6826  149.4163  155.8503 C.ar    1  UNL1        0.0015
     23 C         138.6142  140.0517  162.2771 C.3     1  UNL1        0.1063
     24 C         137.8839  140.6750  163.4295 C.3     1  UNL1        0.1483
     25 O         136.5935  141.4028  163.1943 O.3     1  UNL1       -0.3786
     26 H         136.2554  141.7422  164.0377 H       1  UNL1        0.2108
     27 C         139.6934  142.8235  164.4827 C.3     1  UNL1        0.0306
     28 C         139.3486  141.6447  165.3437 C.ar    1  UNL1       -0.0238
     29 C         138.4438  140.5704  164.8172 C.ar    1  UNL1        0.0015
     30 C         138.0990  139.3916  165.6782 C.ar    1  UNL1       -0.0020
     31 C         138.6589  139.2870  167.0658 C.ar    1  UNL1        0.0060
     32 C         139.5637  140.3613  167.5924 C.ar    1  UNL1        0.0748
     33 C         139.9085  141.5401  166.7314 C.ar    1  UNL1        0.0233
     34 C         140.8193  142.4369  167.5164 C.3     1  UNL1        0.2352
     35 O         141.0374  141.8123  168.8626 O.3     1  UNL1       -0.4404
     36 C         140.2614  140.5295  168.9096 C.2     1  UNL1        0.3413
     37 O         140.1947  139.5813  170.0700 O.2     1  UNL1       -0.2449
@<TRIPOS>BOND
     1    27    28    1
     2    28    29   ar
     3    29    24    1
     4    24    25    1
     5    24    23    1
     6    23     1    1
     7     1     2    1
     8     2     3    1
     9     3     4    1
    10     4     5    1
    11     5     6    1
    12     4     7    1
    13     7     8    1
    14     8     9    1
    15     9    12    1
    16    12    13   ar
    17    13    14   ar
    18    14    17    1
    19    17    18   ar
    20    18    19   ar
    21    19    20   ar
    22    20    21   ar
    23    21    22   ar
    24    14    15   ar
    25    15    16   ar
    26     9    10   am
    27    10    11    2
    28    29    30   ar
    29    30    31   ar
    30    31    32   ar
    31    32    33   ar
    32    33    34    1
    33    34    35    1
    34    35    36    1
    35    36    37    2
    36    33    28   ar
    37     6     1    1
    38    16    12   ar
    39    36    32    1
    40    10     4    1
    41    22    17   ar
    42    25    26    1
@<TRIPOS>MOLECULE
*****
 37 42 0 0 0
SMALL
GASTEIGER

@<TRIPOS>ATOM
      1 N         144.7576  141.7243  162.7135 N.3     1  UNL1       -0.2703
      2 C         144.2470  140.3222  162.5616 C.3     1  UNL1        0.0727
      3 C         143.7772  139.8361  161.2226 C.3     1  UNL1        0.0260
      4 C         143.8181  140.7521  160.0355 C.3     1  UNL1        0.0737
      5 C         144.3288  142.1543  160.1874 C.3     1  UNL1        0.0260
      6 C         144.7985  142.6404  161.5264 C.3     1  UNL1        0.0727
      7 C         143.7996  141.5492  158.7649 C.3     1  UNL1        0.0306
      8 C         143.2544  140.6732  157.6760 C.3     1  UNL1        0.0992
      9 N         142.9359  139.3348  158.2737 N.am    1  UNL1       -0.2523
     10 C         143.2843  139.3835  159.7319 C.2     1  UNL1        0.2289
     11 O         143.1267  138.2609  160.7141 O.2     1  UNL1       -0.2745
     12 C         142.3688  138.1548  157.5418 C.ar    1  UNL1        0.1034
     13 C         143.0703  136.8532  157.2897 C.ar    1  UNL1        0.0428
     14 C         142.1356  135.9632  156.5255 C.ar    1  UNL1        0.0909
     15 N         140.8562  136.7147  156.3052 N.ar    1  UNL1       -0.2079
     16 S         141.0004  138.0692  156.9334 S.2     1  UNL1        0.0282
     17 C         142.4286  134.5667  156.0627 C.ar    1  UNL1        0.0183
     18 C         143.7787  133.9621  156.3110 C.ar    1  UNL1        0.0015
     19 C         144.0718  132.5657  155.8482 C.ar    1  UNL1        0.0000
     20 C         143.0147  131.7739  155.1371 C.ar    1  UNL1        0.0000
     21 C         141.6645  132.3785  154.8888 C.ar    1  UNL1        0.0000
     22 C         141.3715  133.7749  155.3516 C.ar    1  UNL1        0.0015
     23 C         145.2274  142.2105  164.0526 C.3     1  UNL1        0.1063
     24 C         144.4242  143.2301  164.8043 C.3     1  UNL1        0.1483
     25 O         145.0626  144.0253  165.9044 O.3     1  UNL1       -0.3786
     26 H         144.4100  144.6346  166.2835 H       1  UNL1        0.2108
     27 C         142.3038  141.4655  165.9834 C.3     1  UNL1        0.0306
     28 C         141.9224  142.5723  165.0456 C.ar    1  UNL1       -0.0238
     29 C         142.9825  143.4546  164.4561 C.ar    1  UNL1        0.0015
     30 C         142.6010  144.5614  163.5182 C.ar    1  UNL1       -0.0020
     31 C         141.1594  144.7859  163.1700 C.ar    1  UNL1        0.0060
     32 C         140.0993  143.9035  163.7595 C.ar    1  UNL1        0.0748
     33 C         140.4808  142.7968  164.6973 C.ar    1  UNL1        0.0233
     34 C         139.2249  142.0935  165.1196 C.3     1  UNL1        0.2352
     35 O         138.0673  142.7657  164.4428 O.3     1  UNL1       -0.4404
     36 C         138.6077  143.8843  163.6022 C.2     1  UNL1        0.3413
     37 O         137.7986  144.8196  162.7533 O.2     1  UNL1       -0.2449
@<TRIPOS>BOND
     1    27    28    1
     2    28    29   ar
     3    29    24    1
     4    24    25    1
     5    24    23    1
     6    23     1    1
     7     1     2    1
     8     2     3    1
     9     3     4    1
    10     4     5    1
    11     5     6    1
    12     4     7    1
    13     7     8    1
    14     8     9    1
    15     9    12    1
    16    12    13   ar
    17    13    14   ar
    18    14    17    1
    19    17    18   ar
    20    18    19   ar
    21    19    20   ar
    22    20    21   ar
    23    21    22   ar
    24    14    15   ar
    25    15    16   ar
    26     9    10   am
    27    10    11    2
    28    29    30   ar
    29    30    31   ar
    30    31    32   ar
    31    32    33   ar
    32    33    34    1
    33    34    35    1
    34    35    36    1
    35    36    37    2
    36    33    28   ar
    37     6     1    1
    38    16    12   ar
    39    36    32    1
    40    10     4    1
    41    22    17   ar
    42    25    26    1
@<TRIPOS>MOLECULE
*****
 37 42 0 0 0
SMALL
GASTEIGER

@<TRIPOS>ATOM
      1 N         142.4634  143.0239  163.4474 N.3     1  UNL1       -0.2703
      2 C         142.8816  143.9115  162.3129 C.3     1  UNL1        0.0727
      3 C         142.0259  144.0129  161.0852 C.3     1  UNL1        0.0260
      4 C         140.7519  143.2266  160.9919 C.3     1  UNL1        0.0737
      5 C         140.3337  142.3389  162.1264 C.3     1  UNL1        0.0260
      6 C         141.1894  142.2376  163.3541 C.3     1  UNL1        0.0727
      7 C         139.4585  142.5042  160.7566 C.3     1  UNL1        0.0306
      8 C         138.9464  142.8993  159.4031 C.3     1  UNL1        0.0992
      9 N         139.9235  143.8658  158.8019 N.am    1  UNL1       -0.2523
     10 C         141.0392  144.0681  159.7838 C.2     1  UNL1        0.2289
     11 O         142.2328  144.9559  159.5915 O.2     1  UNL1       -0.2745
     12 C         139.8054  144.5159  157.4554 C.ar    1  UNL1        0.1034
     13 C         139.8876  145.9875  157.1765 C.ar    1  UNL1        0.0428
     14 C         139.7174  146.1896  155.7000 C.ar    1  UNL1        0.0909
     15 N         139.5300  144.8431  155.0662 N.ar    1  UNL1       -0.2079
     16 S         139.5844  143.8087  156.1512 S.2     1  UNL1        0.0282
     17 C         139.7320  147.5071  154.9829 C.ar    1  UNL1        0.0183
     18 C         139.0269  148.6912  155.5752 C.ar    1  UNL1        0.0015
     19 C         139.0415  150.0087  154.8582 C.ar    1  UNL1        0.0000
     20 C         139.7612  150.1420  153.5489 C.ar    1  UNL1        0.0000
     21 C         140.4663  148.9579  152.9566 C.ar    1  UNL1        0.0000
     22 C         140.4517  147.6405  153.6737 C.ar    1  UNL1        0.0015
     23 C         143.3192  142.9225  164.6752 C.3     1  UNL1        0.1063
     24 C         143.2885  141.6767  165.5100 C.3     1  UNL1        0.1483
     25 O         143.9238  140.4168  165.0008 O.3     1  UNL1       -0.3786
     26 H         143.8155  139.7116  165.6580 H       1  UNL1        0.2108
     27 C         140.7379  140.1560  165.9361 C.3     1  UNL1        0.0306
     28 C         141.3473  140.9303  167.0670 C.ar    1  UNL1       -0.0238
     29 C         142.6226  141.6906  166.8540 C.ar    1  UNL1        0.0015
     30 C         143.2320  142.4649  167.9849 C.ar    1  UNL1       -0.0020
     31 C         142.5661  142.4789  169.3289 C.ar    1  UNL1        0.0060
     32 C         141.2908  141.7186  169.5420 C.ar    1  UNL1        0.0748
     33 C         140.6814  140.9443  168.4110 C.ar    1  UNL1        0.0233
     34 C         139.4271  140.2952  168.9166 C.3     1  UNL1        0.2352
     35 O         139.2614  140.6683  170.3599 O.3     1  UNL1       -0.4404
     36 C         140.4132  141.5480  170.7464 C.2     1  UNL1        0.3413
     37 O         140.6465  142.1513  172.0998 O.2     1  UNL1       -0.2449
@<TRIPOS>BOND
     1    27    28    1
     2    28    29   ar
     3    29    24    1
     4    24    25    1
     5    24    23    1
     6    23     1    1
     7     1     2    1
     8     2     3    1
     9     3     4    1
    10     4     5    1
    11     5     6    1
    12     4     7    1
    13     7     8    1
    14     8     9    1
    15     9    12    1
    16    12    13   ar
    17    13    14   ar
    18    14    17    1
    19    17    18   ar
    20    18    19   ar
    21    19    20   ar
    22    20    21   ar
    23    21    22   ar
    24    14    15   ar
    25    15    16   ar
    26     9    10   am
    27    10    11    2
    28    29    30   ar
    29    30    31   ar
    30    31    32   ar
    31    32    33   ar
    32    33    34    1
    33    34    35    1
    34    35    36    1
    35    36    37    2
    36    33    28   ar
    37     6     1    1
    38    16    12   ar
    39    36    32    1
    40    10     4    1
    41    22    17   ar
    42    25    26    1
@<TRIPOS>MOLECULE
*****
 37 42 0 0 0
SMALL
GASTEIGER

@<TRIPOS>ATOM
      1 N         144.4703  141.3605  161.9778 N.3     1  UNL1       -0.2703
      2 C         144.0668  139.9189  161.8838 C.3     1  UNL1        0.0727
      3 C         143.6338  139.3455  160.5671 C.3     1  UNL1        0.0260
      4 C         143.6043  140.2139  159.3444 C.3     1  UNL1        0.0737
      5 C         144.0077  141.6555  159.4383 C.3     1  UNL1        0.0260
      6 C         144.4407  142.2288  160.7550 C.3     1  UNL1        0.0727
      7 C         143.5244  140.9558  158.0432 C.3     1  UNL1        0.0306
      8 C         143.0459  139.9984  156.9922 C.3     1  UNL1        0.0992
      9 N         142.8300  138.6647  157.6440 N.am    1  UNL1       -0.2523
     10 C         143.1751  138.7978  159.0976 C.2     1  UNL1        0.2289
     11 O         143.1036  137.7067  160.1244 O.2     1  UNL1       -0.2745
     12 C         142.3528  137.4170  156.9618 C.ar    1  UNL1        0.1034
     13 C         143.0568  136.0924  156.9534 C.ar    1  UNL1        0.0428
     14 C         142.2269  135.1315  156.1547 C.ar    1  UNL1        0.0909
     15 N         141.0101  135.8621  155.6694 N.ar    1  UNL1       -0.2079
     16 S         141.0879  137.2746  156.1683 S.2     1  UNL1        0.0282
     17 C         142.5561  133.6925  155.8880 C.ar    1  UNL1        0.0183
     18 C         141.4753  132.7415  155.4668 C.ar    1  UNL1        0.0015
     19 C         141.8045  131.3026  155.2001 C.ar    1  UNL1        0.0000
     20 C         143.2145  130.8147  155.3546 C.ar    1  UNL1        0.0000
     21 C         144.2953  131.7658  155.7759 C.ar    1  UNL1        0.0000
     22 C         143.9661  133.2047  156.0425 C.ar    1  UNL1        0.0015
     23 C         144.9033  141.9339  163.2946 C.3     1  UNL1        0.1063
     24 C         143.8847  142.5095  164.2332 C.3     1  UNL1        0.1483
     25 O         144.3232  143.1336  165.5248 O.3     1  UNL1       -0.3786
     26 H         143.5463  143.4537  166.0094 H       1  UNL1        0.2108
     27 C         142.6062  144.8255  162.8184 C.3     1  UNL1        0.0306
     28 C         141.7883  143.6191  163.1730 C.ar    1  UNL1       -0.0238
     29 C         142.4276  142.4611  163.8803 C.ar    1  UNL1        0.0015
     30 C         141.6098  141.2547  164.2348 C.ar    1  UNL1       -0.0020
     31 C         140.1527  141.2062  163.8820 C.ar    1  UNL1        0.0060
     32 C         139.5135  142.3642  163.1746 C.ar    1  UNL1        0.0748
     33 C         140.3313  143.5706  162.8201 C.ar    1  UNL1        0.0233
     34 C         139.4329  144.5527  162.1284 C.3     1  UNL1        0.2352
     35 O         138.0598  143.9532  162.0553 O.3     1  UNL1       -0.4404
     36 C         138.1096  142.6006  162.7019 C.2     1  UNL1        0.3413
     37 O         136.9578  141.6512  162.8500 O.2     1  UNL1       -0.2449
@<TRIPOS>BOND
     1    27    28    1
     2    28    29   ar
     3    29    24    1
     4    24    25    1
     5    24    23    1
     6    23     1    1
     7     1     2    1
     8     2     3    1
     9     3     4    1
    10     4     5    1
    11     5     6    1
    12     4     7    1
    13     7     8    1
    14     8     9    1
    15     9    12    1
    16    12    13   ar
    17    13    14   ar
    18    14    17    1
    19    17    18   ar
    20    18    19   ar
    21    19    20   ar
    22    20    21   ar
    23    21    22   ar
    24    14    15   ar
    25    15    16   ar
    26     9    10   am
    27    10    11    2
    28    29    30   ar
    29    30    31   ar
    30    31    32   ar
    31    32    33   ar
    32    33    34    1
    33    34    35    1
    34    35    36    1
    35    36    37    2
    36    33    28   ar
    37     6     1    1
    38    16    12   ar
    39    36    32    1
    40    10     4    1
    41    22    17   ar
    42    25    26    1
@<TRIPOS>MOLECULE
*****
 37 42 0 0 0
SMALL
GASTEIGER

@<TRIPOS>ATOM
      1 N         142.7974  138.3148  157.7035 N.3     1  UNL1       -0.2703
      2 C         142.4120  137.7269  159.0285 C.3     1  UNL1        0.0727
      3 C         142.6596  138.4974  160.2914 C.3     1  UNL1        0.0260
      4 C         143.2928  139.8558  160.2293 C.3     1  UNL1        0.0737
      5 C         143.6783  140.4437  158.9043 C.3     1  UNL1        0.0260
      6 C         143.4306  139.6732  157.6414 C.3     1  UNL1        0.0727
      7 C         143.9142  141.2178  160.3237 C.3     1  UNL1        0.0306
      8 C         143.9680  141.6034  161.7724 C.3     1  UNL1        0.0992
      9 N         143.3799  140.4796  162.5733 N.am    1  UNL1       -0.2523
     10 C         142.9626  139.3996  161.6196 C.2     1  UNL1        0.2289
     11 O         142.3267  138.0928  161.9910 O.2     1  UNL1       -0.2745
     12 C         143.2346  140.4425  164.0657 C.ar    1  UNL1        0.1034
     13 C         142.6666  141.5339  164.9236 C.ar    1  UNL1        0.0428
     14 C         142.7127  141.0733  166.3504 C.ar    1  UNL1        0.0909
     15 N         143.3092  139.6973  166.3744 N.ar    1  UNL1       -0.2079
     16 S         143.6317  139.3074  164.9622 S.2     1  UNL1        0.0282
     17 C         142.2445  141.8521  167.5439 C.ar    1  UNL1        0.0183
     18 C         140.8769  142.4682  167.5480 C.ar    1  UNL1        0.0015
     19 C         140.4087  143.2470  168.7415 C.ar    1  UNL1        0.0000
     20 C         141.3082  143.4097  169.9309 C.ar    1  UNL1        0.0000
     21 C         142.6759  142.7936  169.9267 C.ar    1  UNL1        0.0000
     22 C         143.1440  142.0148  168.7332 C.ar    1  UNL1        0.0015
     23 C         142.5498  137.5443  156.4405 C.3     1  UNL1        0.1063
     24 C         143.5974  136.6079  155.9156 C.3     1  UNL1        0.1483
     25 O         144.8797  137.1526  155.3597 O.3     1  UNL1       -0.3786
     26 H         145.4422  136.4190  155.0660 H       1  UNL1        0.2108
     27 C         142.2837  135.2483  153.5862 C.3     1  UNL1        0.0306
     28 C         142.7059  134.4469  154.7818 C.ar    1  UNL1       -0.0238
     29 C         143.3627  135.1266  155.9465 C.ar    1  UNL1        0.0015
     30 C         143.7849  134.3252  157.1421 C.ar    1  UNL1       -0.0020
     31 C         143.5503  132.8440  157.1730 C.ar    1  UNL1        0.0060
     32 C         142.8935  132.1643  156.0083 C.ar    1  UNL1        0.0748
     33 C         142.4713  132.9657  154.8127 C.ar    1  UNL1        0.0233
     34 C         141.8513  132.0268  153.8208 C.3     1  UNL1        0.2352
     35 O         141.8903  130.6450  154.4032 O.3     1  UNL1       -0.4404
     36 C         142.5344  130.7300  155.7552 C.2     1  UNL1        0.3413
     37 O         142.7769  129.5823  156.6900 O.2     1  UNL1       -0.2449
@<TRIPOS>BOND
     1    27    28    1
     2    28    29   ar
     3    29    24    1
     4    24    25    1
     5    24    23    1
     6    23     1    1
     7     1     2    1
     8     2     3    1
     9     3     4    1
    10     4     5    1
    11     5     6    1
    12     4     7    1
    13     7     8    1
    14     8     9    1
    15     9    12    1
    16    12    13   ar
    17    13    14   ar
    18    14    17    1
    19    17    18   ar
    20    18    19   ar
    21    19    20   ar
    22    20    21   ar
    23    21    22   ar
    24    14    15   ar
    25    15    16   ar
    26     9    10   am
    27    10    11    2
    28    29    30   ar
    29    30    31   ar
    30    31    32   ar
    31    32    33   ar
    32    33    34    1
    33    34    35    1
    34    35    36    1
    35    36    37    2
    36    33    28   ar
    37     6     1    1
    38    16    12   ar
    39    36    32    1
    40    10     4    1
    41    22    17   ar
    42    25    26    1
@<TRIPOS>MOLECULE
*****
 37 42 0 0 0
SMALL
GASTEIGER

@<TRIPOS>ATOM
      1 N         141.7141  137.8815  157.2734 N.3     1  UNL1       -0.2703
      2 C         142.6358  137.9110  158.4564 C.3     1  UNL1        0.0727
      3 C         142.0973  138.2330  159.8188 C.3     1  UNL1        0.0260
      4 C         140.6371  138.5255  159.9982 C.3     1  UNL1        0.0737
      5 C         139.7154  138.4960  158.8152 C.3     1  UNL1        0.0260
      6 C         140.2539  138.1740  157.4528 C.3     1  UNL1        0.0727
      7 C         139.2080  138.8377  160.3303 C.3     1  UNL1        0.0306
      8 C         139.1208  139.0970  161.8052 C.3     1  UNL1        0.0992
      9 N         140.4960  138.9451  162.3846 N.am    1  UNL1       -0.2523
     10 C         141.4331  138.5919  161.2679 C.2     1  UNL1        0.2289
     11 O         142.9074  138.3480  161.3979 O.2     1  UNL1       -0.2745
     12 C         140.8687  139.1163  163.8274 C.ar    1  UNL1        0.1034
     13 C         140.1981  140.0315  164.8086 C.ar    1  UNL1        0.0428
     14 C         140.8924  139.8833  166.1300 C.ar    1  UNL1        0.0909
     15 N         141.9920  138.8765  165.9655 N.ar    1  UNL1       -0.2079
     16 S         141.9774  138.4025  164.5424 S.2     1  UNL1        0.0282
     17 C         140.5475  140.6136  167.3940 C.ar    1  UNL1        0.0183
     18 C         141.0914  141.9902  167.6370 C.ar    1  UNL1        0.0015
     19 C         140.7465  142.7206  168.9011 C.ar    1  UNL1        0.0000
     20 C         139.8578  142.0742  169.9221 C.ar    1  UNL1        0.0000
     21 C         139.3139  140.6976  169.6790 C.ar    1  UNL1        0.0000
     22 C         139.6588  139.9673  168.4150 C.ar    1  UNL1        0.0015
     23 C         142.2526  137.5595  155.9108 C.3     1  UNL1        0.1063
     24 C         143.4377  136.6511  155.7682 C.3     1  UNL1        0.1483
     25 O         144.7924  137.2256  155.4776 O.3     1  UNL1       -0.3786
     26 H         145.4419  136.5077  155.4168 H       1  UNL1        0.2108
     27 C         142.2286  135.0497  153.5380 C.3     1  UNL1        0.0306
     28 C         142.6634  134.3674  154.8010 C.ar    1  UNL1       -0.0238
     29 C         143.2679  135.1680  155.9161 C.ar    1  UNL1        0.0015
     30 C         143.7028  134.4857  157.1792 C.ar    1  UNL1       -0.0020
     31 C         143.5331  133.0027  157.3272 C.ar    1  UNL1        0.0060
     32 C         142.9286  132.2021  156.2121 C.ar    1  UNL1        0.0748
     33 C         142.4937  132.8844  154.9490 C.ar    1  UNL1        0.0233
     34 C         141.9343  131.8413  154.0277 C.3     1  UNL1        0.2352
     35 O         142.0233  130.5143  154.7213 O.3     1  UNL1       -0.4404
     36 C         142.6378  130.7373  156.0713 C.2     1  UNL1        0.3413
     37 O         142.9133  129.6809  157.1000 O.2     1  UNL1       -0.2449
@<TRIPOS>BOND
     1    27    28    1
     2    28    29   ar
     3    29    24    1
     4    24    25    1
     5    24    23    1
     6    23     1    1
     7     1     2    1
     8     2     3    1
     9     3     4    1
    10     4     5    1
    11     5     6    1
    12     4     7    1
    13     7     8    1
    14     8     9    1
    15     9    12    1
    16    12    13   ar
    17    13    14   ar
    18    14    17    1
    19    17    18   ar
    20    18    19   ar
    21    19    20   ar
    22    20    21   ar
    23    21    22   ar
    24    14    15   ar
    25    15    16   ar
    26     9    10   am
    27    10    11    2
    28    29    30   ar
    29    30    31   ar
    30    31    32   ar
    31    32    33   ar
    32    33    34    1
    33    34    35    1
    34    35    36    1
    35    36    37    2
    36    33    28   ar
    37     6     1    1
    38    16    12   ar
    39    36    32    1
    40    10     4    1
    41    22    17   ar
    42    25    26    1
@<TRIPOS>MOLECULE
*****
 37 42 0 0 0
SMALL
GASTEIGER

@<TRIPOS>ATOM
      1 N         143.9032  141.7096  160.6826 N.3     1  UNL1       -0.2703
      2 C         143.3898  140.3089  160.8383 C.3     1  UNL1        0.0727
      3 C         143.2088  139.4379  159.6307 C.3     1  UNL1        0.0260
      4 C         143.5411  139.9676  158.2672 C.3     1  UNL1        0.0737
      5 C         144.0544  141.3684  158.1115 C.3     1  UNL1        0.0260
      6 C         144.2355  142.2394  159.3192 C.3     1  UNL1        0.0727
      7 C         143.8297  140.3574  156.8478 C.3     1  UNL1        0.0306
      8 C         143.5066  139.1845  155.9702 C.3     1  UNL1        0.0992
      9 N         143.0183  138.0699  156.8473 N.am    1  UNL1       -0.2523
     10 C         143.0396  138.5539  158.2669 C.2     1  UNL1        0.2289
     11 O         142.6313  137.7630  159.4743 O.2     1  UNL1       -0.2745
     12 C         142.5849  136.7101  156.3858 C.ar    1  UNL1        0.1034
     13 C         143.4149  135.4612  156.4205 C.ar    1  UNL1        0.0428
     14 C         142.5883  134.3397  155.8647 C.ar    1  UNL1        0.0909
     15 N         141.2473  134.8954  155.4866 N.ar    1  UNL1       -0.2079
     16 S         141.2453  136.3604  155.8087 S.2     1  UNL1        0.0282
     17 C         143.0258  132.9128  155.7136 C.ar    1  UNL1        0.0183
     18 C         144.4197  132.5113  156.0956 C.ar    1  UNL1        0.0015
     19 C         144.8572  131.0844  155.9445 C.ar    1  UNL1        0.0000
     20 C         143.9008  130.0592  155.4113 C.ar    1  UNL1        0.0000
     21 C         142.5069  130.4608  155.0293 C.ar    1  UNL1        0.0000
     22 C         142.0695  131.8876  155.1805 C.ar    1  UNL1        0.0015
     23 C         144.0842  142.5807  161.8903 C.3     1  UNL1        0.1063
     24 C         144.8965  142.0918  163.0527 C.3     1  UNL1        0.1483
     25 O         146.3755  141.8915  162.9028 O.3     1  UNL1       -0.3786
     26 H         146.7455  141.5746  163.7416 H       1  UNL1        0.2108
     27 C         144.4964  139.2541  163.9400 C.3     1  UNL1        0.0306
     28 C         144.0298  140.3844  164.8087 C.ar    1  UNL1       -0.0238
     29 C         144.2298  141.8032  164.3651 C.ar    1  UNL1        0.0015
     30 C         143.7631  142.9336  165.2338 C.ar    1  UNL1       -0.0020
     31 C         143.0964  142.6450  166.5461 C.ar    1  UNL1        0.0060
     32 C         142.8964  141.2262  166.9897 C.ar    1  UNL1        0.0748
     33 C         143.3631  140.0959  166.1210 C.ar    1  UNL1        0.0233
     34 C         143.0314  138.8091  166.8169 C.3     1  UNL1        0.2352
     35 O         142.3597  139.1441  168.1156 O.3     1  UNL1       -0.4404
     36 C         142.2763  140.6380  168.2224 C.2     1  UNL1        0.3413
     37 O         141.6779  141.4084  169.3618 O.2     1  UNL1       -0.2449
@<TRIPOS>BOND
     1    27    28    1
     2    28    29   ar
     3    29    24    1
     4    24    25    1
     5    24    23    1
     6    23     1    1
     7     1     2    1
     8     2     3    1
     9     3     4    1
    10     4     5    1
    11     5     6    1
    12     4     7    1
    13     7     8    1
    14     8     9    1
    15     9    12    1
    16    12    13   ar
    17    13    14   ar
    18    14    17    1
    19    17    18   ar
    20    18    19   ar
    21    19    20   ar
    22    20    21   ar
    23    21    22   ar
    24    14    15   ar
    25    15    16   ar
    26     9    10   am
    27    10    11    2
    28    29    30   ar
    29    30    31   ar
    30    31    32   ar
    31    32    33   ar
    32    33    34    1
    33    34    35    1
    34    35    36    1
    35    36    37    2
    36    33    28   ar
    37     6     1    1
    38    16    12   ar
    39    36    32    1
    40    10     4    1
    41    22    17   ar
    42    25    26    1
@<TRIPOS>MOLECULE
*****
 37 42 0 0 0
SMALL
GASTEIGER

@<TRIPOS>ATOM
      1 N         140.9728  140.2753  163.3913 N.3     1  UNL1       -0.2703
      2 C         140.8806  140.0812  161.9068 C.3     1  UNL1        0.0727
      3 C         141.9067  140.6998  161.0045 C.3     1  UNL1        0.0260
      4 C         143.0250  141.5126  161.5866 C.3     1  UNL1        0.0737
      5 C         143.1172  141.7067  163.0711 C.3     1  UNL1        0.0260
      6 C         142.0911  141.0880  163.9735 C.3     1  UNL1        0.0727
      7 C         144.1936  142.3465  162.0215 C.3     1  UNL1        0.0306
      8 C         144.9536  142.7552  160.7945 C.3     1  UNL1        0.0992
      9 N         144.2547  142.1739  159.6013 N.am    1  UNL1       -0.2523
     10 C         143.0628  141.4059  160.0908 C.2     1  UNL1        0.2289
     11 O         142.0811  140.6619  159.2350 O.2     1  UNL1       -0.2745
     12 C         144.6741  142.3327  158.1700 C.ar    1  UNL1        0.1034
     13 C         146.0856  142.3744  157.6642 C.ar    1  UNL1        0.0428
     14 C         146.0395  142.5452  156.1747 C.ar    1  UNL1        0.0909
     15 N         144.5994  142.6089  155.7598 N.ar    1  UNL1       -0.2079
     16 S         143.7556  142.4776  156.9930 S.2     1  UNL1        0.0282
     17 C         147.2252  142.6362  155.2605 C.ar    1  UNL1        0.0183
     18 C         148.4494  141.8143  155.5359 C.ar    1  UNL1        0.0015
     19 C         149.6352  141.9054  154.6217 C.ar    1  UNL1        0.0000
     20 C         149.5967  142.8182  153.4321 C.ar    1  UNL1        0.0000
     21 C         148.3724  143.6401  153.1567 C.ar    1  UNL1        0.0000
     22 C         147.1867  143.5490  154.0709 C.ar    1  UNL1        0.0015
     23 C         139.9466  139.6567  164.2938 C.3     1  UNL1        0.1063
     24 C         139.0850  140.5285  165.1583 C.3     1  UNL1        0.1483
     25 O         137.8556  141.1704  164.5869 O.3     1  UNL1       -0.3786
     26 H         137.4167  141.6966  165.2735 H       1  UNL1        0.2108
     27 C         140.2268  143.1687  166.0102 C.3     1  UNL1        0.0306
     28 C         140.0236  142.0785  167.0202 C.ar    1  UNL1       -0.0238
     29 C         139.4527  140.7584  166.5943 C.ar    1  UNL1        0.0015
     30 C         139.2495  139.6682  167.6043 C.ar    1  UNL1       -0.0020
     31 C         139.6172  139.8980  169.0402 C.ar    1  UNL1        0.0060
     32 C         140.1881  141.2181  169.4662 C.ar    1  UNL1        0.0748
     33 C         140.3913  142.3083  168.4561 C.ar    1  UNL1        0.0233
     34 C         140.9694  143.4963  169.1664 C.3     1  UNL1        0.2352
     35 O         141.1236  143.1403  170.6154 O.3     1  UNL1       -0.4404
     36 C         140.6407  141.7323  170.8006 C.2     1  UNL1        0.3413
     37 O         140.6149  140.9719  172.0934 O.2     1  UNL1       -0.2449
@<TRIPOS>BOND
     1    27    28    1
     2    28    29   ar
     3    29    24    1
     4    24    25    1
     5    24    23    1
     6    23     1    1
     7     1     2    1
     8     2     3    1
     9     3     4    1
    10     4     5    1
    11     5     6    1
    12     4     7    1
    13     7     8    1
    14     8     9    1
    15     9    12    1
    16    12    13   ar
    17    13    14   ar
    18    14    17    1
    19    17    18   ar
    20    18    19   ar
    21    19    20   ar
    22    20    21   ar
    23    21    22   ar
    24    14    15   ar
    25    15    16   ar
    26     9    10   am
    27    10    11    2
    28    29    30   ar
    29    30    31   ar
    30    31    32   ar
    31    32    33   ar
    32    33    34    1
    33    34    35    1
    34    35    36    1
    35    36    37    2
    36    33    28   ar
    37     6     1    1
    38    16    12   ar
    39    36    32    1
    40    10     4    1
    41    22    17   ar
    42    25    26    1
@<TRIPOS>MOLECULE
*****
 37 42 0 0 0
SMALL
GASTEIGER

@<TRIPOS>ATOM
      1 N         144.9124  141.5206  163.2267 N.3     1  UNL1       -0.2703
      2 C         144.5228  141.9545  161.8447 C.3     1  UNL1        0.0727
      3 C         143.8962  140.9730  160.8993 C.3     1  UNL1        0.0260
      4 C         143.6593  139.5576  161.3357 C.3     1  UNL1        0.0737
      5 C         144.0490  139.1237  162.7177 C.3     1  UNL1        0.0260
      6 C         144.6755  140.1052  163.6632 C.3     1  UNL1        0.0727
      7 C         143.3624  138.1169  161.6294 C.3     1  UNL1        0.0306
      8 C         142.7392  137.5133  160.4056 C.3     1  UNL1        0.0992
      9 N         142.6510  138.5810  159.3557 N.am    1  UNL1       -0.2523
     10 C         143.2196  139.8444  159.9305 C.2     1  UNL1        0.2289
     11 O         143.3294  141.1631  159.2243 O.2     1  UNL1       -0.2745
     12 C         142.0923  138.4145  157.9737 C.ar    1  UNL1        0.1034
     13 C         140.6531  138.5689  157.5801 C.ar    1  UNL1        0.0428
     14 C         140.5460  138.3142  156.1057 C.ar    1  UNL1        0.0909
     15 N         141.9189  138.0024  155.5881 N.ar    1  UNL1       -0.2079
     16 S         142.8745  138.0644  156.7427 S.2     1  UNL1        0.0282
     17 C         139.2869  138.3628  155.2918 C.ar    1  UNL1        0.0183
     18 C         138.9510  137.2348  154.3618 C.ar    1  UNL1        0.0015
     19 C         137.6919  137.2834  153.5479 C.ar    1  UNL1        0.0000
     20 C         136.7688  138.4600  153.6639 C.ar    1  UNL1        0.0000
     21 C         137.1047  139.5880  154.5939 C.ar    1  UNL1        0.0000
     22 C         138.3638  139.5394  155.4078 C.ar    1  UNL1        0.0015
     23 C         145.5390  142.5022  164.1723 C.3     1  UNL1        0.1063
     24 C         144.6749  143.4444  164.9567 C.3     1  UNL1        0.1483
     25 O         145.2323  144.1505  166.1570 O.3     1  UNL1       -0.3786
     26 H         144.5478  144.7175  166.5454 H       1  UNL1        0.2108
     27 C         142.4677  141.8087  166.1622 C.3     1  UNL1        0.0306
     28 C         142.1496  142.8628  165.1435 C.ar    1  UNL1       -0.0238
     29 C         143.2531  143.6807  164.5408 C.ar    1  UNL1        0.0015
     30 C         142.9350  144.7348  163.5221 C.ar    1  UNL1       -0.0020
     31 C         141.5133  144.9710  163.1062 C.ar    1  UNL1        0.0060
     32 C         140.4098  144.1532  163.7089 C.ar    1  UNL1        0.0748
     33 C         140.7279  143.0991  164.7276 C.ar    1  UNL1        0.0233
     34 C         139.4396  142.4541  165.1450 C.3     1  UNL1        0.2352
     35 O         138.3253  143.1095  164.3843 O.3     1  UNL1       -0.4404
     36 C         138.9249  144.1596  163.4968 C.2     1  UNL1        0.3413
     37 O         138.1718  145.0584  162.5613 O.2     1  UNL1       -0.2449
@<TRIPOS>BOND
     1    27    28    1
     2    28    29   ar
     3    29    24    1
     4    24    25    1
     5    24    23    1
     6    23     1    1
     7     1     2    1
     8     2     3    1
     9     3     4    1
    10     4     5    1
    11     5     6    1
    12     4     7    1
    13     7     8    1
    14     8     9    1
    15     9    12    1
    16    12    13   ar
    17    13    14   ar
    18    14    17    1
    19    17    18   ar
    20    18    19   ar
    21    19    20   ar
    22    20    21   ar
    23    21    22   ar
    24    14    15   ar
    25    15    16   ar
    26     9    10   am
    27    10    11    2
    28    29    30   ar
    29    30    31   ar
    30    31    32   ar
    31    32    33   ar
    32    33    34    1
    33    34    35    1
    34    35    36    1
    35    36    37    2
    36    33    28   ar
    37     6     1    1
    38    16    12   ar
    39    36    32    1
    40    10     4    1
    41    22    17   ar
    42    25    26    1
