@<TRIPOS>MOLECULE
*****
 39 42 0 0 0
SMALL
GASTEIGER

@<TRIPOS>ATOM
      1 N         140.5516  138.9079  163.0207 N.3     1  UNL1       -0.2711
      2 C         140.8447  137.6933  162.1907 C.3     1  UNL1        0.0933
      3 C         140.9124  138.5497  160.9612 C.3     1  UNL1        0.1035
      4 C         140.6194  139.7643  161.7911 C.3     1  UNL1        0.0933
      5 C         139.7862  139.6677  167.3895 C.3     1  UNL1        0.1232
      6 O         138.7020  139.4995  168.4124 O.3     1  UNL1       -0.3812
      7 C         141.1111  140.0291  166.7863 C.3     1  UNL1        0.0341
      8 C         141.3663  139.7758  165.3300 C.3     1  UNL1        0.0188
      9 C         140.2964  139.1611  164.4770 C.3     1  UNL1        0.0578
     10 C         138.9715  138.7997  165.0802 C.3     1  UNL1        0.0188
     11 C         138.7163  139.0530  166.5364 C.3     1  UNL1        0.0341
     12 H         139.0140  139.8257  169.2709 H       1  UNL1        0.2107
     13 C         140.7034  142.0692  170.4130 C.ar    1  UNL1        0.2247
     14 C         141.8659  141.3365  171.0144 C.ar    1  UNL1        0.0577
     15 C         142.3352  140.0476  170.4075 C.ar    1  UNL1        0.0061
     16 C         141.6420  139.4913  169.1992 C.ar    1  UNL1        0.0173
     17 C         140.4795  140.2240  168.5978 C.ar    1  UNL1        0.0861
     18 N         140.0102  141.5129  169.2047 N.ar    1  UNL1       -0.2137
     19 C         140.2343  144.6159  170.2025 C.3     1  UNL1        0.2542
     20 O         140.2341  143.3582  171.0199 O.3     1  UNL1       -0.4561
     21 N         141.1676  138.2964  159.5049 N.am    1  UNL1       -0.3018
     22 C         140.0720  138.5108  158.5032 C.2     1  UNL1        0.2426
     23 O         138.7211  138.9784  158.9575 O.2     1  UNL1       -0.2733
     24 H         142.0542  137.9895  159.2066 H       1  UNL1        0.1495
     25 C         140.3272  138.2575  157.0468 C.3     1  UNL1        0.1759
     26 N         140.7782  136.9021  156.5891 N.am    1  UNL1       -0.2931
     27 C         142.2292  136.5294  156.6650 C.2     1  UNL1        0.2462
     28 O         143.2291  137.5120  157.1986 O.2     1  UNL1       -0.2701
     29 H         140.1220  136.2573  156.2388 H       1  UNL1        0.1502
     30 C         142.6802  135.1740  156.2072 C.ar    1  UNL1        0.0533
     31 C         142.2327  134.6442  154.8771 C.ar    1  UNL1        0.0045
     32 C         142.6838  133.2889  154.4195 C.ar    1  UNL1        0.0001
     33 C         143.5824  132.4633  155.2918 C.ar    1  UNL1        0.0039
     34 C         144.0300  132.9931  156.6219 C.ar    1  UNL1        0.0716
     35 C         143.5789  134.3484  157.0795 C.ar    1  UNL1        0.0084
     36 C         144.9286  132.1675  157.4941 C.3     1  UNL1        0.4186
     37 F         145.8272  131.3419  158.3664 F       1  UNL1       -0.1659
     38 F         144.8610  131.0451  156.5014 F       1  UNL1       -0.1659
     39 F         144.9962  133.2900  158.4869 F       1  UNL1       -0.1659
@<TRIPOS>BOND
     1    19    20    1
     2    20    13    1
     3    13    14   ar
     4    14    15   ar
     5    15    16   ar
     6    16    17   ar
     7    17     5    1
     8     5     6    1
     9     5     7    1
    10     7     8    1
    11     8     9    1
    12     9     1    1
    13     1     2    1
    14     2     3    1
    15     3    21    1
    16    21    22   am
    17    22    23    2
    18    22    25    1
    19    25    26    1
    20    26    27   am
    21    27    28    2
    22    27    30    1
    23    30    31   ar
    24    31    32   ar
    25    32    33   ar
    26    33    34   ar
    27    34    36    1
    28    36    37    1
    29    36    38    1
    30    36    39    1
    31    34    35   ar
    32     3     4    1
    33     9    10    1
    34    10    11    1
    35    17    18   ar
    36    18    13   ar
    37    11     5    1
    38     4     1    1
    39    35    30   ar
    40     6    12    1
    41    21    24    1
    42    26    29    1
@<TRIPOS>MOLECULE
*****
 39 42 0 0 0
SMALL
GASTEIGER

@<TRIPOS>ATOM
      1 N         139.3069  139.0895  163.3309 N.3     1  UNL1       -0.2711
      2 C         139.1014  139.9737  162.1368 C.3     1  UNL1        0.0933
      3 C         139.3065  138.7967  161.2299 C.3     1  UNL1        0.1035
      4 C         139.5121  137.9125  162.4240 C.3     1  UNL1        0.0933
      5 C         139.3077  139.7104  167.7878 C.3     1  UNL1        0.1232
      6 O         138.4035  139.5379  168.9722 O.3     1  UNL1       -0.3812
      7 C         140.5260  140.0529  166.9827 C.3     1  UNL1        0.0341
      8 C         140.5258  139.8459  165.4970 C.3     1  UNL1        0.0188
      9 C         139.3071  139.2964  164.8166 C.3     1  UNL1        0.0578
     10 C         138.0888  138.9539  165.6217 C.3     1  UNL1        0.0188
     11 C         138.0891  139.1609  167.1074 C.3     1  UNL1        0.0341
     12 H         138.8659  139.8224  169.7761 H       1  UNL1        0.2107
     13 C         142.3318  139.8960  170.3511 C.ar    1  UNL1        0.2247
     14 C         142.0215  141.1791  171.0632 C.ar    1  UNL1        0.0577
     15 C         140.8066  141.9727  170.6836 C.ar    1  UNL1        0.0061
     16 C         139.9020  141.4832  169.5918 C.ar    1  UNL1        0.0173
     17 C         140.2123  140.2000  168.8797 C.ar    1  UNL1        0.0861
     18 N         141.4273  139.4064  169.2593 N.ar    1  UNL1       -0.2137
     19 C         143.5476  137.6107  170.5732 C.3     1  UNL1        0.2542
     20 O         143.5468  139.1024  170.7308 O.3     1  UNL1       -0.4561
     21 N         139.3063  138.5897  159.7442 N.am    1  UNL1       -0.3018
     22 C         140.5642  138.8068  158.9566 C.2     1  UNL1        0.2426
     23 O         141.8224  139.2307  159.6544 O.2     1  UNL1       -0.2733
     24 H         138.4805  138.3115  159.2861 H       1  UNL1        0.1495
     25 C         140.5639  138.5998  157.4708 C.3     1  UNL1        0.1759
     26 N         140.9127  137.2570  156.9006 N.am    1  UNL1       -0.2931
     27 C         142.3502  136.8513  156.7623 C.2     1  UNL1        0.2462
     28 O         143.4389  137.7885  157.1942 O.2     1  UNL1       -0.2701
     29 H         140.1982  136.6419  156.6172 H       1  UNL1        0.1502
     30 C         142.6990  135.5085  156.1921 C.ar    1  UNL1        0.0533
     31 C         142.1637  135.1010  154.8514 C.ar    1  UNL1        0.0045
     32 C         142.5126  133.7581  154.2812 C.ar    1  UNL1        0.0001
     33 C         143.3966  132.8228  155.0517 C.ar    1  UNL1        0.0039
     34 C         143.9319  133.2303  156.3924 C.ar    1  UNL1        0.0716
     35 C         143.5830  134.5732  156.9626 C.ar    1  UNL1        0.0084
     36 C         144.8159  132.2950  157.1629 C.3     1  UNL1        0.4186
     37 F         145.6999  131.3597  157.9334 F       1  UNL1       -0.1659
     38 F         144.5762  133.0949  158.4090 F       1  UNL1       -0.1659
     39 F         145.0556  131.4951  155.9168 F       1  UNL1       -0.1659
@<TRIPOS>BOND
     1    19    20    1
     2    20    13    1
     3    13    14   ar
     4    14    15   ar
     5    15    16   ar
     6    16    17   ar
     7    17     5    1
     8     5     6    1
     9     5     7    1
    10     7     8    1
    11     8     9    1
    12     9     1    1
    13     1     2    1
    14     2     3    1
    15     3    21    1
    16    21    22   am
    17    22    23    2
    18    22    25    1
    19    25    26    1
    20    26    27   am
    21    27    28    2
    22    27    30    1
    23    30    31   ar
    24    31    32   ar
    25    32    33   ar
    26    33    34   ar
    27    34    36    1
    28    36    37    1
    29    36    38    1
    30    36    39    1
    31    34    35   ar
    32     3     4    1
    33     9    10    1
    34    10    11    1
    35    17    18   ar
    36    18    13   ar
    37    11     5    1
    38     4     1    1
    39    35    30   ar
    40     6    12    1
    41    21    24    1
    42    26    29    1
@<TRIPOS>MOLECULE
*****
 39 42 0 0 0
SMALL
GASTEIGER

@<TRIPOS>ATOM
      1 N         142.7845  138.5679  163.1045 N.3     1  UNL1       -0.2711
      2 C         143.6818  139.0188  161.9903 C.3     1  UNL1        0.0933
      3 C         143.0110  138.0531  161.0591 C.3     1  UNL1        0.1035
      4 C         142.1137  137.6021  162.1733 C.3     1  UNL1        0.0933
      5 C         142.3040  139.6598  167.4435 C.3     1  UNL1        0.1232
      6 O         142.9944  139.4645  168.7608 O.3     1  UNL1       -0.3812
      7 C         141.2888  140.1167  166.4383 C.3     1  UNL1        0.0341
      8 C         141.4489  139.7527  164.9919 C.3     1  UNL1        0.0188
      9 C         142.6244  138.9318  164.5508 C.3     1  UNL1        0.0578
     10 C         143.6397  138.4750  165.5560 C.3     1  UNL1        0.0188
     11 C         143.4795  138.8390  167.0024 C.3     1  UNL1        0.0341
     12 H         142.4897  139.9096  169.4594 H       1  UNL1        0.2107
     13 C         139.4987  140.4188  170.1461 C.ar    1  UNL1        0.2247
     14 C         139.4970  141.9187  170.1393 C.ar    1  UNL1        0.0577
     15 C         140.4309  142.6657  169.2339 C.ar    1  UNL1        0.0061
     16 C         141.3665  141.9128  168.3353 C.ar    1  UNL1        0.0173
     17 C         141.3683  140.4129  168.3421 C.ar    1  UNL1        0.0861
     18 N         140.4344  139.6658  169.2475 N.ar    1  UNL1       -0.2137
     19 C         137.1657  139.3707  170.6025 C.3     1  UNL1        0.2542
     20 O         138.5649  139.6718  171.0516 O.3     1  UNL1       -0.4561
     21 N         143.1711  137.6891  159.6128 N.am    1  UNL1       -0.3018
     22 C         142.3753  138.4100  158.5654 C.2     1  UNL1        0.2426
     23 O         141.4193  139.4948  158.9643 O.2     1  UNL1       -0.2733
     24 H         143.7986  136.9771  159.3509 H       1  UNL1        0.1495
     25 C         142.5355  138.0460  157.1190 C.3     1  UNL1        0.1759
     26 N         143.0289  136.6814  156.7393 N.am    1  UNL1       -0.2931
     27 C         142.1135  135.7205  156.0403 C.2     1  UNL1        0.2462
     28 O         140.7045  136.1242  155.7210 O.2     1  UNL1       -0.2701
     29 H         143.9536  136.4164  156.9488 H       1  UNL1        0.1502
     30 C         142.6069  134.3558  155.6605 C.ar    1  UNL1        0.0533
     31 C         142.3583  133.8258  154.2794 C.ar    1  UNL1        0.0045
     32 C         142.8518  132.4612  153.8998 C.ar    1  UNL1        0.0001
     33 C         143.5939  131.6265  154.9011 C.ar    1  UNL1        0.0039
     34 C         143.8425  132.1565  156.2822 C.ar    1  UNL1        0.0716
     35 C         143.3490  133.5211  156.6618 C.ar    1  UNL1        0.0084
     36 C         144.5845  131.3218  157.2834 C.3     1  UNL1        0.4186
     37 F         145.3266  130.4871  158.2847 F       1  UNL1       -0.1659
     38 F         143.8867  130.0943  156.7773 F       1  UNL1       -0.1659
     39 F         145.2824  132.5493  157.7896 F       1  UNL1       -0.1659
@<TRIPOS>BOND
     1    19    20    1
     2    20    13    1
     3    13    14   ar
     4    14    15   ar
     5    15    16   ar
     6    16    17   ar
     7    17     5    1
     8     5     6    1
     9     5     7    1
    10     7     8    1
    11     8     9    1
    12     9     1    1
    13     1     2    1
    14     2     3    1
    15     3    21    1
    16    21    22   am
    17    22    23    2
    18    22    25    1
    19    25    26    1
    20    26    27   am
    21    27    28    2
    22    27    30    1
    23    30    31   ar
    24    31    32   ar
    25    32    33   ar
    26    33    34   ar
    27    34    36    1
    28    36    37    1
    29    36    38    1
    30    36    39    1
    31    34    35   ar
    32     3     4    1
    33     9    10    1
    34    10    11    1
    35    17    18   ar
    36    18    13   ar
    37    11     5    1
    38     4     1    1
    39    35    30   ar
    40     6    12    1
    41    21    24    1
    42    26    29    1
@<TRIPOS>MOLECULE
*****
 39 42 0 0 0
SMALL
GASTEIGER

@<TRIPOS>ATOM
      1 N         140.3290  143.5124  159.2542 N.3     1  UNL1       -0.2711
      2 C         139.7560  143.3347  160.6290 C.3     1  UNL1        0.0933
      3 C         140.8520  142.3660  160.9608 C.3     1  UNL1        0.1035
      4 C         141.4250  142.5436  159.5860 C.3     1  UNL1        0.0933
      5 C         139.2197  145.9444  155.6342 C.3     1  UNL1        0.1232
      6 O         138.4273  145.8220  154.3664 O.3     1  UNL1       -0.3812
      7 C         140.0905  146.5405  156.7001 C.3     1  UNL1        0.0341
      8 C         140.4603  145.7299  157.9068 C.3     1  UNL1        0.0188
      9 C         139.9592  144.3230  158.0475 C.3     1  UNL1        0.0578
     10 C         139.0884  143.7269  156.9816 C.3     1  UNL1        0.0188
     11 C         138.7186  144.5375  155.7749 C.3     1  UNL1        0.0341
     12 H         138.4815  146.6534  153.8698 H       1  UNL1        0.2107
     13 C         139.0235  149.8719  155.0991 C.ar    1  UNL1        0.2247
     14 C         139.8971  150.0374  153.8911 C.ar    1  UNL1        0.0577
     15 C         140.5450  148.8385  153.2641 C.ar    1  UNL1        0.0061
     16 C         140.3192  147.4742  153.8451 C.ar    1  UNL1        0.0173
     17 C         139.4455  147.3087  155.0531 C.ar    1  UNL1        0.0861
     18 N         138.7977  148.5076  155.6801 N.ar    1  UNL1       -0.2137
     19 C         138.3560  152.3806  154.9956 C.3     1  UNL1        0.2542
     20 O         138.3757  151.0707  155.7262 O.3     1  UNL1       -0.4561
     21 N         141.2218  141.5553  162.1675 N.am    1  UNL1       -0.3018
     22 C         140.6908  140.1615  162.3261 C.2     1  UNL1        0.2426
     23 O         139.7900  139.5782  161.2781 O.2     1  UNL1       -0.2733
     24 H         141.8130  141.9381  162.8553 H       1  UNL1        0.1495
     25 C         141.0606  139.3508  163.5329 C.3     1  UNL1        0.1759
     26 N         141.6140  140.0289  164.7510 N.am    1  UNL1       -0.2931
     27 C         140.6934  140.7455  165.6938 C.2     1  UNL1        0.2462
     28 O         139.2194  140.7841  165.4184 O.2     1  UNL1       -0.2701
     29 H         142.5814  140.0035  164.9318 H       1  UNL1        0.1502
     30 C         141.2468  141.4236  166.9120 C.ar    1  UNL1        0.0533
     31 C         142.7290  141.5937  167.0675 C.ar    1  UNL1        0.0045
     32 C         143.2823  142.2718  168.2857 C.ar    1  UNL1        0.0001
     33 C         142.3535  142.7797  169.3484 C.ar    1  UNL1        0.0039
     34 C         140.8713  142.6096  169.1929 C.ar    1  UNL1        0.0716
     35 C         140.3180  141.9315  167.9747 C.ar    1  UNL1        0.0084
     36 C         139.9425  143.1175  170.2557 C.3     1  UNL1        0.4186
     37 F         139.0138  143.6254  171.3184 F       1  UNL1       -0.1659
     38 F         139.3113  141.7602  170.3527 F       1  UNL1       -0.1659
     39 F         140.5738  144.4747  170.1587 F       1  UNL1       -0.1659
@<TRIPOS>BOND
     1    19    20    1
     2    20    13    1
     3    13    14   ar
     4    14    15   ar
     5    15    16   ar
     6    16    17   ar
     7    17     5    1
     8     5     6    1
     9     5     7    1
    10     7     8    1
    11     8     9    1
    12     9     1    1
    13     1     2    1
    14     2     3    1
    15     3    21    1
    16    21    22   am
    17    22    23    2
    18    22    25    1
    19    25    26    1
    20    26    27   am
    21    27    28    2
    22    27    30    1
    23    30    31   ar
    24    31    32   ar
    25    32    33   ar
    26    33    34   ar
    27    34    36    1
    28    36    37    1
    29    36    38    1
    30    36    39    1
    31    34    35   ar
    32     3     4    1
    33     9    10    1
    34    10    11    1
    35    17    18   ar
    36    18    13   ar
    37    11     5    1
    38     4     1    1
    39    35    30   ar
    40     6    12    1
    41    21    24    1
    42    26    29    1
@<TRIPOS>MOLECULE
*****
 39 42 0 0 0
SMALL
GASTEIGER

@<TRIPOS>ATOM
      1 N         139.5234  140.0178  160.3308 N.3     1  UNL1       -0.2711
      2 C         139.7613  139.9798  158.8503 C.3     1  UNL1        0.0933
      3 C         138.2978  140.2036  158.6093 C.3     1  UNL1        0.1035
      4 C         138.0599  140.2416  160.0898 C.3     1  UNL1        0.0933
      5 C         142.1231  139.6237  163.9827 C.3     1  UNL1        0.1232
      6 O         143.2367  138.7705  164.5138 O.3     1  UNL1       -0.3812
      7 C         141.0838  140.7031  163.9148 C.3     1  UNL1        0.0341
      8 C         140.2172  140.8345  162.6976 C.3     1  UNL1        0.0188
      9 C         140.3900  139.8864  161.5481 C.3     1  UNL1        0.0578
     10 C         141.4292  138.8069  161.6159 C.3     1  UNL1        0.0188
     11 C         142.2958  138.6755  162.8332 C.3     1  UNL1        0.0341
     12 H         143.4895  139.0819  165.3969 H       1  UNL1        0.2107
     13 C         142.1038  140.2351  167.9039 C.ar    1  UNL1        0.2247
     14 C         142.7652  141.5790  167.9844 C.ar    1  UNL1        0.0577
     15 C         143.2126  142.2711  166.7311 C.ar    1  UNL1        0.0061
     16 C         142.9985  141.6194  165.3972 C.ar    1  UNL1        0.0173
     17 C         142.3371  140.2755  165.3166 C.ar    1  UNL1        0.0861
     18 N         141.8898  139.5834  166.5700 N.ar    1  UNL1       -0.2137
     19 C         140.7693  140.2578  170.1329 C.3     1  UNL1        0.2542
     20 O         141.6565  139.5430  169.1572 O.3     1  UNL1       -0.4561
     21 N         137.4313  140.3350  157.3920 N.am    1  UNL1       -0.3018
     22 C         137.2009  141.6838  156.7774 C.2     1  UNL1        0.2426
     23 O         137.8371  142.9012  157.3800 O.2     1  UNL1       -0.2733
     24 H         137.0137  139.5360  156.9965 H       1  UNL1        0.1495
     25 C         136.3343  141.8152  155.5601 C.3     1  UNL1        0.1759
     26 N         134.8408  141.7893  155.6964 N.am    1  UNL1       -0.2931
     27 C         134.1231  140.4798  155.8377 C.2     1  UNL1        0.2462
     28 O         134.8990  139.1960  155.8426 O.2     1  UNL1       -0.2701
     29 H         134.3315  142.6319  155.6931 H       1  UNL1        0.1502
     30 C         132.6296  140.4539  155.9739 C.ar    1  UNL1        0.0533
     31 C         131.7989  141.5236  155.3290 C.ar    1  UNL1        0.0045
     32 C         130.3054  141.4977  155.4654 C.ar    1  UNL1        0.0001
     33 C         129.6424  140.4022  156.2466 C.ar    1  UNL1        0.0039
     34 C         130.4730  139.3325  156.8915 C.ar    1  UNL1        0.0716
     35 C         131.9666  139.3584  156.7551 C.ar    1  UNL1        0.0084
     36 C         129.8100  138.2370  157.6727 C.3     1  UNL1        0.4186
     37 F         129.1471  137.1414  158.4539 F       1  UNL1       -0.1659
     38 F         130.0488  137.2841  156.5391 F       1  UNL1       -0.1659
     39 F         129.5713  139.1898  158.8063 F       1  UNL1       -0.1659
@<TRIPOS>BOND
     1    19    20    1
     2    20    13    1
     3    13    14   ar
     4    14    15   ar
     5    15    16   ar
     6    16    17   ar
     7    17     5    1
     8     5     6    1
     9     5     7    1
    10     7     8    1
    11     8     9    1
    12     9     1    1
    13     1     2    1
    14     2     3    1
    15     3    21    1
    16    21    22   am
    17    22    23    2
    18    22    25    1
    19    25    26    1
    20    26    27   am
    21    27    28    2
    22    27    30    1
    23    30    31   ar
    24    31    32   ar
    25    32    33   ar
    26    33    34   ar
    27    34    36    1
    28    36    37    1
    29    36    38    1
    30    36    39    1
    31    34    35   ar
    32     3     4    1
    33     9    10    1
    34    10    11    1
    35    17    18   ar
    36    18    13   ar
    37    11     5    1
    38     4     1    1
    39    35    30   ar
    40     6    12    1
    41    21    24    1
    42    26    29    1
@<TRIPOS>MOLECULE
*****
 39 42 0 0 0
SMALL
GASTEIGER

@<TRIPOS>ATOM
      1 N         141.0432  139.8578  162.1830 N.3     1  UNL1       -0.2711
      2 C         140.9908  138.4752  161.6036 C.3     1  UNL1        0.0933
      3 C         141.0560  139.0523  160.2206 C.3     1  UNL1        0.1035
      4 C         141.1084  140.4348  160.8001 C.3     1  UNL1        0.0933
      5 C         141.0162  141.5665  166.3459 C.3     1  UNL1        0.1232
      6 O         140.7489  142.8611  167.0549 O.3     1  UNL1       -0.3812
      7 C         141.3715  140.1255  166.1290 C.3     1  UNL1        0.0341
      8 C         141.3805  139.5559  164.7414 C.3     1  UNL1        0.0188
      9 C         141.0342  140.4274  163.5706 C.3     1  UNL1        0.0578
     10 C         140.6789  141.8684  163.7875 C.3     1  UNL1        0.0188
     11 C         140.6698  142.4380  165.1751 C.3     1  UNL1        0.0341
     12 H         140.8769  142.7398  168.0087 H       1  UNL1        0.2107
     13 C         140.3955  140.2003  170.0199 C.ar    1  UNL1        0.2247
     14 C         141.7765  140.3008  170.5967 C.ar    1  UNL1        0.0577
     15 C         142.9040  140.8232  169.7566 C.ar    1  UNL1        0.0061
     16 C         142.6506  141.2451  168.3397 C.ar    1  UNL1        0.0173
     17 C         141.2696  141.1446  167.7629 C.ar    1  UNL1        0.0861
     18 N         140.1421  140.6222  168.6030 N.ar    1  UNL1       -0.2137
     19 C         137.8510  139.8304  170.3921 C.3     1  UNL1        0.2542
     20 O         139.2680  139.6780  170.8600 O.3     1  UNL1       -0.4561
     21 N         141.0650  138.4827  158.8330 N.am    1  UNL1       -0.3018
     22 C         139.8477  138.6031  157.9649 C.2     1  UNL1        0.2426
     23 O         138.6213  139.2931  158.4843 O.2     1  UNL1       -0.2733
     24 H         141.8699  138.0297  158.4920 H       1  UNL1        0.1495
     25 C         139.8567  138.0335  156.5772 C.3     1  UNL1        0.1759
     26 N         140.3258  136.6275  156.3467 N.am    1  UNL1       -0.2931
     27 C         141.7937  136.3190  156.3348 C.2     1  UNL1        0.2462
     28 O         142.7925  137.4166  156.5534 O.2     1  UNL1       -0.2701
     29 H         139.6702  135.9072  156.2032 H       1  UNL1        0.1502
     30 C         142.2627  134.9131  156.1043 C.ar    1  UNL1        0.0533
     31 C         141.6380  134.0817  155.0232 C.ar    1  UNL1        0.0045
     32 C         142.1071  132.6757  154.7927 C.ar    1  UNL1        0.0001
     33 C         143.2009  132.1010  155.6432 C.ar    1  UNL1        0.0039
     34 C         143.8256  132.9324  156.7243 C.ar    1  UNL1        0.0716
     35 C         143.3565  134.3384  156.9548 C.ar    1  UNL1        0.0084
     36 C         144.9194  132.3577  157.5748 C.3     1  UNL1        0.4186
     37 F         146.0132  131.7830  158.4253 F       1  UNL1       -0.1659
     38 F         145.0725  131.2200  156.6092 F       1  UNL1       -0.1659
     39 F         144.7664  133.4953  158.5404 F       1  UNL1       -0.1659
@<TRIPOS>BOND
     1    19    20    1
     2    20    13    1
     3    13    14   ar
     4    14    15   ar
     5    15    16   ar
     6    16    17   ar
     7    17     5    1
     8     5     6    1
     9     5     7    1
    10     7     8    1
    11     8     9    1
    12     9     1    1
    13     1     2    1
    14     2     3    1
    15     3    21    1
    16    21    22   am
    17    22    23    2
    18    22    25    1
    19    25    26    1
    20    26    27   am
    21    27    28    2
    22    27    30    1
    23    30    31   ar
    24    31    32   ar
    25    32    33   ar
    26    33    34   ar
    27    34    36    1
    28    36    37    1
    29    36    38    1
    30    36    39    1
    31    34    35   ar
    32     3     4    1
    33     9    10    1
    34    10    11    1
    35    17    18   ar
    36    18    13   ar
    37    11     5    1
    38     4     1    1
    39    35    30   ar
    40     6    12    1
    41    21    24    1
    42    26    29    1
@<TRIPOS>MOLECULE
*****
 39 42 0 0 0
SMALL
GASTEIGER

@<TRIPOS>ATOM
      1 N         140.7450  143.4108  159.1805 N.3     1  UNL1       -0.2711
      2 C         141.6566  142.2299  159.3375 C.3     1  UNL1        0.0933
      3 C         141.4330  142.2544  160.8205 C.3     1  UNL1        0.1035
      4 C         140.5214  143.4352  160.6635 C.3     1  UNL1        0.0933
      5 C         139.2855  145.8639  155.7018 C.3     1  UNL1        0.1232
      6 O         138.3400  145.7639  154.5415 O.3     1  UNL1       -0.3812
      7 C         140.3004  146.4337  156.6479 C.3     1  UNL1        0.0341
      8 C         140.7869  145.6160  157.8075 C.3     1  UNL1        0.0188
      9 C         140.2585  144.2284  158.0209 C.3     1  UNL1        0.0578
     10 C         139.2435  143.6587  157.0748 C.3     1  UNL1        0.0188
     11 C         138.7570  144.4763  155.9152 C.3     1  UNL1        0.0341
     12 H         138.3617  146.5906  154.0346 H       1  UNL1        0.2107
     13 C         139.0091  149.7706  155.0603 C.ar    1  UNL1        0.2247
     14 C         139.8857  149.9223  153.8526 C.ar    1  UNL1        0.0577
     15 C         140.5622  148.7212  153.2613 C.ar    1  UNL1        0.0061
     16 C         140.3622  147.3684  153.8776 C.ar    1  UNL1        0.0173
     17 C         139.4856  147.2167  155.0853 C.ar    1  UNL1        0.0861
     18 N         138.8091  148.4178  155.6767 N.ar    1  UNL1       -0.2137
     19 C         138.4429  152.3047  154.9728 C.3     1  UNL1        0.2542
     20 O         138.3326  150.9717  155.6516 O.3     1  UNL1       -0.4561
     21 N         141.9195  141.4367  161.9801 N.am    1  UNL1       -0.3018
     22 C         143.3381  141.5697  162.4489 C.2     1  UNL1        0.2426
     23 O         144.2703  142.5205  161.7582 O.2     1  UNL1       -0.2733
     24 H         141.3078  140.8126  162.4334 H       1  UNL1        0.1495
     25 C         143.8247  140.7520  163.6085 C.3     1  UNL1        0.1759
     26 N         143.3340  141.0496  164.9944 N.am    1  UNL1       -0.2931
     27 C         142.0022  140.5282  165.4466 C.2     1  UNL1        0.2462
     28 O         141.1611  139.7092  164.5128 O.2     1  UNL1       -0.2701
     29 H         143.8860  141.5871  165.6072 H       1  UNL1        0.1502
     30 C         141.5115  140.8258  166.8324 C.ar    1  UNL1        0.0533
     31 C         140.2178  140.2375  167.3125 C.ar    1  UNL1        0.0045
     32 C         139.7272  140.5351  168.6983 C.ar    1  UNL1        0.0001
     33 C         140.5301  141.4210  169.6042 C.ar    1  UNL1        0.0039
     34 C         141.8238  142.0093  169.1241 C.ar    1  UNL1        0.0716
     35 C         142.3144  141.7116  167.7382 C.ar    1  UNL1        0.0084
     36 C         142.6267  142.8952  170.0299 C.3     1  UNL1        0.4186
     37 F         143.4296  143.7810  170.9358 F       1  UNL1       -0.1659
     38 F         143.7560  141.9085  169.9939 F       1  UNL1       -0.1659
     39 F         141.4975  143.8818  170.0660 F       1  UNL1       -0.1659
@<TRIPOS>BOND
     1    19    20    1
     2    20    13    1
     3    13    14   ar
     4    14    15   ar
     5    15    16   ar
     6    16    17   ar
     7    17     5    1
     8     5     6    1
     9     5     7    1
    10     7     8    1
    11     8     9    1
    12     9     1    1
    13     1     2    1
    14     2     3    1
    15     3    21    1
    16    21    22   am
    17    22    23    2
    18    22    25    1
    19    25    26    1
    20    26    27   am
    21    27    28    2
    22    27    30    1
    23    30    31   ar
    24    31    32   ar
    25    32    33   ar
    26    33    34   ar
    27    34    36    1
    28    36    37    1
    29    36    38    1
    30    36    39    1
    31    34    35   ar
    32     3     4    1
    33     9    10    1
    34    10    11    1
    35    17    18   ar
    36    18    13   ar
    37    11     5    1
    38     4     1    1
    39    35    30   ar
    40     6    12    1
    41    21    24    1
    42    26    29    1
@<TRIPOS>MOLECULE
*****
 39 42 0 0 0
SMALL
GASTEIGER

@<TRIPOS>ATOM
      1 N         139.9715  139.8680  161.4423 N.3     1  UNL1       -0.2711
      2 C         139.9916  138.4323  161.0082 C.3     1  UNL1        0.0933
      3 C         139.9156  138.8648  159.5740 C.3     1  UNL1        0.1035
      4 C         139.8956  140.3005  160.0081 C.3     1  UNL1        0.0933
      5 C         140.0901  141.9958  165.4056 C.3     1  UNL1        0.1232
      6 O         140.1141  143.3888  165.9617 O.3     1  UNL1       -0.3812
      7 C         140.0786  140.4966  165.3594 C.3     1  UNL1        0.0341
      8 C         140.0391  139.7873  164.0383 C.3     1  UNL1        0.0188
      9 C         140.0110  140.5773  162.7634 C.3     1  UNL1        0.0578
     10 C         140.0224  142.0765  162.8097 C.3     1  UNL1        0.0188
     11 C         140.0620  142.7858  164.1308 C.3     1  UNL1        0.0341
     12 H         140.1393  143.3497  166.9306 H       1  UNL1        0.2107
     13 C         140.8071  142.3478  169.2931 C.ar    1  UNL1        0.2247
     14 C         140.1995  141.0774  169.8095 C.ar    1  UNL1        0.0577
     15 C         139.5554  140.1131  168.8581 C.ar    1  UNL1        0.0061
     16 C         139.5189  140.4192  167.3901 C.ar    1  UNL1        0.0173
     17 C         140.1265  141.6896  166.8737 C.ar    1  UNL1        0.0861
     18 N         140.7706  142.6539  167.8251 N.ar    1  UNL1       -0.2137
     19 C         142.9074  143.1771  170.5780 C.3     1  UNL1        0.2542
     20 O         141.4512  143.3121  170.2445 O.3     1  UNL1       -0.4561
     21 N         139.8761  138.1555  158.2529 N.am    1  UNL1       -0.3018
     22 C         141.1275  138.0189  157.4373 C.2     1  UNL1        0.2426
     23 O         142.4185  138.5916  157.9426 O.2     1  UNL1       -0.2733
     24 H         139.0288  137.7796  157.9212 H       1  UNL1        0.1495
     25 C         141.0880  137.3095  156.1161 C.3     1  UNL1        0.1759
     26 N         141.1085  135.8105  156.0688 N.am    1  UNL1       -0.2931
     27 C         142.4111  135.0745  156.1763 C.2     1  UNL1        0.2462
     28 O         143.6932  135.8377  156.3310 O.2     1  UNL1       -0.2701
     29 H         140.2671  135.3096  155.9673 H       1  UNL1        0.1502
     30 C         142.4317  133.5754  156.1290 C.ar    1  UNL1        0.0533
     31 C         141.5110  132.8416  155.1995 C.ar    1  UNL1        0.0045
     32 C         141.5316  131.3425  155.1523 C.ar    1  UNL1        0.0001
     33 C         142.4729  130.5772  156.0345 C.ar    1  UNL1        0.0039
     34 C         143.3936  131.3110  156.9640 C.ar    1  UNL1        0.0716
     35 C         143.3730  132.8101  157.0112 C.ar    1  UNL1        0.0084
     36 C         144.3349  130.5456  157.8461 C.3     1  UNL1        0.4186
     37 F         145.2762  129.7803  158.7283 F       1  UNL1       -0.1659
     38 F         145.1142  131.8011  158.1039 F       1  UNL1       -0.1659
     39 F         143.5556  129.2901  157.5883 F       1  UNL1       -0.1659
@<TRIPOS>BOND
     1    19    20    1
     2    20    13    1
     3    13    14   ar
     4    14    15   ar
     5    15    16   ar
     6    16    17   ar
     7    17     5    1
     8     5     6    1
     9     5     7    1
    10     7     8    1
    11     8     9    1
    12     9     1    1
    13     1     2    1
    14     2     3    1
    15     3    21    1
    16    21    22   am
    17    22    23    2
    18    22    25    1
    19    25    26    1
    20    26    27   am
    21    27    28    2
    22    27    30    1
    23    30    31   ar
    24    31    32   ar
    25    32    33   ar
    26    33    34   ar
    27    34    36    1
    28    36    37    1
    29    36    38    1
    30    36    39    1
    31    34    35   ar
    32     3     4    1
    33     9    10    1
    34    10    11    1
    35    17    18   ar
    36    18    13   ar
    37    11     5    1
    38     4     1    1
    39    35    30   ar
    40     6    12    1
    41    21    24    1
    42    26    29    1
@<TRIPOS>MOLECULE
*****
 39 42 0 0 0
SMALL
GASTEIGER

@<TRIPOS>ATOM
      1 N         143.0196  139.2335  160.7496 N.3     1  UNL1       -0.2711
      2 C         143.2651  139.5161  159.2971 C.3     1  UNL1        0.0933
      3 C         142.9076  138.0988  158.9608 C.3     1  UNL1        0.1035
      4 C         142.6622  137.8161  160.4133 C.3     1  UNL1        0.0933
      5 C         143.2573  141.6404  164.5443 C.3     1  UNL1        0.1232
      6 O         144.2292  142.4922  165.3058 O.3     1  UNL1       -0.3812
      7 C         141.9900  140.9198  164.1914 C.3     1  UNL1        0.0341
      8 C         141.9108  140.1175  162.9266 C.3     1  UNL1        0.0188
      9 C         143.0989  140.0358  162.0145 C.3     1  UNL1        0.0578
     10 C         144.3662  140.7564  162.3674 C.3     1  UNL1        0.0188
     11 C         144.4454  141.5588  163.6323 C.3     1  UNL1        0.0341
     12 H         143.8077  142.8180  166.1164 H       1  UNL1        0.2107
     13 C         142.0616  142.1694  168.2914 C.ar    1  UNL1        0.2247
     14 C         140.7058  142.7729  168.0738 C.ar    1  UNL1        0.0577
     15 C         140.2004  142.9989  166.6797 C.ar    1  UNL1        0.0061
     16 C         141.0509  142.6215  165.5032 C.ar    1  UNL1        0.0173
     17 C         142.4067  142.0180  165.7208 C.ar    1  UNL1        0.0861
     18 N         142.9121  141.7919  167.1149 N.ar    1  UNL1       -0.2137
     19 C         142.8629  143.1143  170.5751 C.3     1  UNL1        0.2542
     20 O         142.5670  141.9434  169.6855 O.3     1  UNL1       -0.4561
     21 N         142.8283  137.2964  157.6959 N.am    1  UNL1       -0.3018
     22 C         141.5200  137.1597  156.9752 C.2     1  UNL1        0.2426
     23 O         140.2908  137.8252  157.5194 O.2     1  UNL1       -0.2733
     24 H         143.6351  136.8596  157.3387 H       1  UNL1        0.1495
     25 C         141.4407  136.3573  155.7103 C.3     1  UNL1        0.1759
     26 N         141.4109  134.8589  155.7732 N.am    1  UNL1       -0.2931
     27 C         142.6643  134.0963  156.0851 C.2     1  UNL1        0.2462
     28 O         143.9476  134.8320  156.3341 O.2     1  UNL1       -0.2701
     29 H         140.5687  134.3761  155.6098 H       1  UNL1        0.1502
     30 C         142.6345  132.5979  156.1480 C.ar    1  UNL1        0.0533
     31 C         141.7957  131.8229  155.1754 C.ar    1  UNL1        0.0045
     32 C         141.7660  130.3246  155.2384 C.ar    1  UNL1        0.0001
     33 C         142.5749  129.6011  156.2739 C.ar    1  UNL1        0.0039
     34 C         143.4137  130.3761  157.2465 C.ar    1  UNL1        0.0716
     35 C         143.4435  131.8745  157.1835 C.ar    1  UNL1        0.0084
     36 C         144.2226  129.6527  158.2820 C.3     1  UNL1        0.4186
     37 F         145.0316  128.9293  159.3175 F       1  UNL1       -0.1659
     38 F         143.1822  128.5738  158.3411 F       1  UNL1       -0.1659
     39 F         145.2631  130.7316  158.2229 F       1  UNL1       -0.1659
@<TRIPOS>BOND
     1    19    20    1
     2    20    13    1
     3    13    14   ar
     4    14    15   ar
     5    15    16   ar
     6    16    17   ar
     7    17     5    1
     8     5     6    1
     9     5     7    1
    10     7     8    1
    11     8     9    1
    12     9     1    1
    13     1     2    1
    14     2     3    1
    15     3    21    1
    16    21    22   am
    17    22    23    2
    18    22    25    1
    19    25    26    1
    20    26    27   am
    21    27    28    2
    22    27    30    1
    23    30    31   ar
    24    31    32   ar
    25    32    33   ar
    26    33    34   ar
    27    34    36    1
    28    36    37    1
    29    36    38    1
    30    36    39    1
    31    34    35   ar
    32     3     4    1
    33     9    10    1
    34    10    11    1
    35    17    18   ar
    36    18    13   ar
    37    11     5    1
    38     4     1    1
    39    35    30   ar
    40     6    12    1
    41    21    24    1
    42    26    29    1
