@<TRIPOS>MOLECULE
*****
 36 40 0 0 0
SMALL
GASTEIGER

@<TRIPOS>ATOM
      1 C         142.0277  137.7999  163.5241 C.3     1  UNL1        0.0887
      2 O         141.2963  137.0485  162.4514 O.3     1  UNL1       -0.3867
      3 C         142.3774  138.3379  164.8798 C.3     1  UNL1        0.0283
      4 C         143.5721  139.2292  165.0478 C.3     1  UNL1        0.0181
      5 C         144.4172  139.5824  163.8598 C.3     1  UNL1        0.0544
      6 C         144.0675  139.0443  162.5041 C.3     1  UNL1        0.0181
      7 C         142.8728  138.1531  162.3361 C.3     1  UNL1        0.0283
      8 H         140.5368  136.5871  162.8403 H       1  UNL1        0.2102
      9 N         145.6120  140.4737  164.0278 N.3     1  UNL1       -0.2948
     10 H         146.4320  139.9139  163.7941 H       1  UNL1        0.1235
     11 C         145.7162  141.7449  163.2385 C.3     1  UNL1        0.0957
     12 C         144.5348  142.6635  163.1365 C.ar    1  UNL1       -0.0032
     13 C         143.9206  143.2361  164.3795 C.ar    1  UNL1        0.0004
     14 C         142.7392  144.1548  164.2775 C.ar    1  UNL1        0.0398
     15 C         142.1720  144.5008  162.9328 C.ar    1  UNL1        0.1724
     16 C         142.7862  143.9282  161.6898 C.ar    1  UNL1        0.1721
     17 C         143.9676  143.0096  161.7918 C.ar    1  UNL1        0.0371
     18 O         142.2190  144.2743  160.3450 O.3     1  UNL1       -0.4684
     19 C         141.0376  145.1929  160.2431 C.3     1  UNL1        0.2526
     20 C         140.4235  145.7655  161.4861 C.3     1  UNL1        0.2526
     21 O         140.9906  145.4195  162.8308 O.3     1  UNL1       -0.4684
     22 C         140.9287  137.1857  164.3395 C.3     1  UNL1        0.0317
     23 C         139.9489  138.0639  165.0600 C.3     1  UNL1        0.0327
     24 C         140.3321  142.3022  166.5226 C.ar    1  UNL1        0.2250
     25 C         139.6412  143.4138  165.7898 C.ar    1  UNL1        0.0593
     26 C         138.8226  143.1126  164.5695 C.ar    1  UNL1        0.0254
     27 C         138.6948  141.6999  164.0820 C.ar    1  UNL1        0.0990
     28 N         137.8762  141.3987  162.8617 N.ar    1  UNL1       -0.2400
     29 C         137.7484  139.9859  162.3742 C.ar    1  UNL1        0.1281
     30 C         138.4393  138.8743  163.1070 C.ar    1  UNL1        0.1566
     31 F         138.3116  137.4615  162.6194 F       1  UNL1       -0.2028
     32 C         139.2580  139.1754  164.3272 C.ar    1  UNL1        0.0261
     33 C         139.3857  140.5883  164.8147 C.ar    1  UNL1        0.1002
     34 N         140.2044  140.8895  166.0350 N.ar    1  UNL1       -0.2104
     35 C         140.4879  143.1384  168.9774 C.3     1  UNL1        0.2542
     36 O         141.1508  142.6034  167.7428 O.3     1  UNL1       -0.4561
@<TRIPOS>BOND
     1    35    36    1
     2    36    24    1
     3    24    25   ar
     4    25    26   ar
     5    26    27   ar
     6    27    28   ar
     7    28    29   ar
     8    29    30   ar
     9    30    31    1
    10    30    32   ar
    11    32    23    1
    12    23    22    1
    13    22     1    1
    14     1     2    1
    15     1     3    1
    16     3     4    1
    17     4     5    1
    18     5     9    1
    19     9    11    1
    20    11    12    1
    21    12    13   ar
    22    13    14   ar
    23    14    15   ar
    24    15    16   ar
    25    16    17   ar
    26    16    18    1
    27    18    19    1
    28    19    20    1
    29    20    21    1
    30     5     6    1
    31     6     7    1
    32    32    33   ar
    33    33    34   ar
    34    34    24   ar
    35    33    27   ar
    36     7     1    1
    37    17    12   ar
    38    21    15    1
    39     2     8    1
    40     9    10    1
@<TRIPOS>MOLECULE
*****
 36 40 0 0 0
SMALL
GASTEIGER

@<TRIPOS>ATOM
      1 C         143.0182  144.1878  162.2913 C.3     1  UNL1        0.0887
      2 O         144.0276  143.5548  161.3799 O.3     1  UNL1       -0.3867
      3 C         142.4324  144.8468  163.5047 C.3     1  UNL1        0.0283
      4 C         140.9776  145.2112  163.5316 C.3     1  UNL1        0.0181
      5 C         140.1086  144.9166  162.3449 C.3     1  UNL1        0.0544
      6 C         140.6944  144.2577  161.1315 C.3     1  UNL1        0.0181
      7 C         142.1492  143.8933  161.1046 C.3     1  UNL1        0.0283
      8 H         144.8917  143.5327  161.8202 H       1  UNL1        0.2102
      9 N         138.6538  145.2811  162.3718 N.3     1  UNL1       -0.2948
     10 H         138.3282  145.2645  161.4053 H       1  UNL1        0.1235
     11 C         137.6882  144.4545  163.1683 C.3     1  UNL1        0.0957
     12 C         137.9704  143.0023  163.4161 C.ar    1  UNL1       -0.0032
     13 C         138.4833  142.5555  164.7530 C.ar    1  UNL1        0.0004
     14 C         138.7656  141.1033  165.0008 C.ar    1  UNL1        0.0398
     15 C         138.5350  140.0979  163.9119 C.ar    1  UNL1        0.1724
     16 C         138.0221  140.5447  162.5749 C.ar    1  UNL1        0.1721
     17 C         137.7398  141.9969  162.3271 C.ar    1  UNL1        0.0371
     18 O         137.7915  139.5393  161.4859 O.3     1  UNL1       -0.4684
     19 C         138.0737  138.0871  161.7337 C.3     1  UNL1        0.2526
     20 C         138.5866  137.6403  163.0707 C.3     1  UNL1        0.2526
     21 O         138.8172  138.6457  164.1597 O.3     1  UNL1       -0.4684
     22 C         144.2377  144.2626  163.1614 C.3     1  UNL1        0.0317
     23 C         144.2035  143.6980  164.5507 C.3     1  UNL1        0.0327
     24 C         141.2564  141.9141  167.4459 C.ar    1  UNL1        0.2250
     25 C         141.2118  140.4289  167.6510 C.ar    1  UNL1        0.0593
     26 C         142.1495  139.5383  166.8911 C.ar    1  UNL1        0.0254
     27 C         143.1319  140.1329  165.9261 C.ar    1  UNL1        0.0990
     28 N         144.0696  139.2423  165.1662 N.ar    1  UNL1       -0.2400
     29 C         145.0520  139.8369  164.2011 C.ar    1  UNL1        0.1281
     30 C         145.0967  141.3222  163.9959 C.ar    1  UNL1        0.1566
     31 F         146.0790  141.9168  163.0309 F       1  UNL1       -0.2028
     32 C         144.1589  142.2128  164.7558 C.ar    1  UNL1        0.0261
     33 C         143.1765  141.6181  165.7209 C.ar    1  UNL1        0.1002
     34 N         142.2388  142.5087  166.4809 N.ar    1  UNL1       -0.2104
     35 C         140.6731  143.2596  169.5905 C.3     1  UNL1        0.2542
     36 O         140.3187  142.8047  168.2058 O.3     1  UNL1       -0.4561
@<TRIPOS>BOND
     1    35    36    1
     2    36    24    1
     3    24    25   ar
     4    25    26   ar
     5    26    27   ar
     6    27    28   ar
     7    28    29   ar
     8    29    30   ar
     9    30    31    1
    10    30    32   ar
    11    32    23    1
    12    23    22    1
    13    22     1    1
    14     1     2    1
    15     1     3    1
    16     3     4    1
    17     4     5    1
    18     5     9    1
    19     9    11    1
    20    11    12    1
    21    12    13   ar
    22    13    14   ar
    23    14    15   ar
    24    15    16   ar
    25    16    17   ar
    26    16    18    1
    27    18    19    1
    28    19    20    1
    29    20    21    1
    30     5     6    1
    31     6     7    1
    32    32    33   ar
    33    33    34   ar
    34    34    24   ar
    35    33    27   ar
    36     7     1    1
    37    17    12   ar
    38    21    15    1
    39     2     8    1
    40     9    10    1
@<TRIPOS>MOLECULE
*****
 36 40 0 0 0
SMALL
GASTEIGER

@<TRIPOS>ATOM
      1 C         137.9586  141.1689  163.5974 C.3     1  UNL1        0.0887
      2 O         137.7477  140.3996  164.8678 O.3     1  UNL1       -0.3867
      3 C         138.1066  141.4587  162.1332 C.3     1  UNL1        0.0283
      4 C         138.3623  142.8618  161.6684 C.3     1  UNL1        0.0181
      5 C         138.4699  143.9750  162.6680 C.3     1  UNL1        0.0544
      6 C         138.3219  143.6852  164.1322 C.3     1  UNL1        0.0181
      7 C         138.0662  142.2821  164.5970 C.3     1  UNL1        0.0283
      8 H         137.6130  139.4619  164.6593 H       1  UNL1        0.2102
      9 N         138.7256  145.3781  162.2033 N.3     1  UNL1       -0.2948
     10 H         138.4246  145.9971  162.9560 H       1  UNL1        0.1235
     11 C         140.1137  145.8013  161.8237 C.3     1  UNL1        0.0957
     12 C         141.2987  145.0550  162.3611 C.ar    1  UNL1       -0.0032
     13 C         141.9294  145.4801  163.6540 C.ar    1  UNL1        0.0004
     14 C         143.1144  144.7338  164.1914 C.ar    1  UNL1        0.0398
     15 C         143.6687  143.5625  163.4361 C.ar    1  UNL1        0.1724
     16 C         143.0380  143.1374  162.1432 C.ar    1  UNL1        0.1721
     17 C         141.8530  143.8837  161.6058 C.ar    1  UNL1        0.0371
     18 O         143.5924  141.9660  161.3878 O.3     1  UNL1       -0.4684
     19 C         144.7774  141.2198  161.9252 C.3     1  UNL1        0.2526
     20 C         145.4081  141.6449  163.2181 C.3     1  UNL1        0.2526
     21 O         144.8538  142.8162  163.9735 O.3     1  UNL1       -0.4684
     22 C         137.7777  139.7885  163.0390 C.3     1  UNL1        0.0317
     23 C         138.5501  138.6391  163.6155 C.3     1  UNL1        0.0327
     24 C         141.6409  139.5359  166.7607 C.ar    1  UNL1        0.2250
     25 C         143.0990  139.3789  166.4456 C.ar    1  UNL1        0.0593
     26 C         143.5268  138.9229  165.0822 C.ar    1  UNL1        0.0254
     27 C         142.4966  138.6239  164.0338 C.ar    1  UNL1        0.0990
     28 N         142.9244  138.1679  162.6703 N.ar    1  UNL1       -0.2400
     29 C         141.8941  137.8689  161.6220 C.ar    1  UNL1        0.1281
     30 C         140.4360  138.0260  161.9370 C.ar    1  UNL1        0.1566
     31 F         139.4057  137.7270  160.8886 F       1  UNL1       -0.2028
     32 C         140.0081  138.4820  163.3005 C.ar    1  UNL1        0.0261
     33 C         141.0385  138.7810  164.3489 C.ar    1  UNL1        0.1002
     34 N         140.6107  139.2370  165.7123 N.ar    1  UNL1       -0.2104
     35 C         139.7542  140.0998  168.4554 C.3     1  UNL1        0.2542
     36 O         141.2131  139.9920  168.1242 O.3     1  UNL1       -0.4561
@<TRIPOS>BOND
     1    35    36    1
     2    36    24    1
     3    24    25   ar
     4    25    26   ar
     5    26    27   ar
     6    27    28   ar
     7    28    29   ar
     8    29    30   ar
     9    30    31    1
    10    30    32   ar
    11    32    23    1
    12    23    22    1
    13    22     1    1
    14     1     2    1
    15     1     3    1
    16     3     4    1
    17     4     5    1
    18     5     9    1
    19     9    11    1
    20    11    12    1
    21    12    13   ar
    22    13    14   ar
    23    14    15   ar
    24    15    16   ar
    25    16    17   ar
    26    16    18    1
    27    18    19    1
    28    19    20    1
    29    20    21    1
    30     5     6    1
    31     6     7    1
    32    32    33   ar
    33    33    34   ar
    34    34    24   ar
    35    33    27   ar
    36     7     1    1
    37    17    12   ar
    38    21    15    1
    39     2     8    1
    40     9    10    1
@<TRIPOS>MOLECULE
*****
 36 40 0 0 0
SMALL
GASTEIGER

@<TRIPOS>ATOM
      1 C         143.0007  144.1629  162.2853 C.3     1  UNL1        0.0887
      2 O         144.0229  143.5997  161.3430 O.3     1  UNL1       -0.3867
      3 C         142.3975  144.7281  163.5370 C.3     1  UNL1        0.0283
      4 C         140.9427  145.0919  163.5705 C.3     1  UNL1        0.0181
      5 C         140.0910  144.8905  162.3522 C.3     1  UNL1        0.0544
      6 C         140.6941  144.3253  161.1006 C.3     1  UNL1        0.0181
      7 C         142.1489  143.9615  161.0670 C.3     1  UNL1        0.0283
      8 H         144.8804  143.5425  161.7928 H       1  UNL1        0.2102
      9 N         138.6362  145.2543  162.3857 N.3     1  UNL1       -0.2948
     10 H         138.3114  145.2585  161.4189 H       1  UNL1        0.1235
     11 C         137.6699  144.4109  163.1634 C.3     1  UNL1        0.0957
     12 C         137.9816  142.9687  163.4333 C.ar    1  UNL1       -0.0032
     13 C         138.5304  142.5569  164.7672 C.ar    1  UNL1        0.0004
     14 C         138.8421  141.1146  165.0371 C.ar    1  UNL1        0.0398
     15 C         138.6050  140.0842  163.9732 C.ar    1  UNL1        0.1724
     16 C         138.0561  140.4960  162.6393 C.ar    1  UNL1        0.1721
     17 C         137.7444  141.9382  162.3694 C.ar    1  UNL1        0.0371
     18 O         137.8190  139.4655  161.5754 O.3     1  UNL1       -0.4684
     19 C         138.1306  138.0233  161.8453 C.3     1  UNL1        0.2526
     20 C         138.6795  137.6116  163.1792 C.3     1  UNL1        0.2526
     21 O         138.9166  138.6419  164.2431 O.3     1  UNL1       -0.4684
     22 C         144.2073  144.1688  163.1763 C.3     1  UNL1        0.0317
     23 C         144.8395  142.8733  163.5913 C.3     1  UNL1        0.0327
     24 C         143.7070  139.2898  161.1161 C.ar    1  UNL1        0.2250
     25 C         142.8648  138.2018  161.7133 C.ar    1  UNL1        0.0593
     26 C         142.4000  138.3081  163.1355 C.ar    1  UNL1        0.0254
     27 C         142.7775  139.5026  163.9605 C.ar    1  UNL1        0.0990
     28 N         142.3127  139.6089  165.3828 N.ar    1  UNL1       -0.2400
     29 C         142.6902  140.8034  166.2078 C.ar    1  UNL1        0.1281
     30 C         143.5324  141.8915  165.6107 C.ar    1  UNL1        0.1566
     31 F         143.9099  143.0860  166.4357 F       1  UNL1       -0.2028
     32 C         143.9972  141.7852  164.1885 C.ar    1  UNL1        0.0261
     33 C         143.6197  140.5907  163.3634 C.ar    1  UNL1        0.1002
     34 N         144.0845  140.4843  161.9412 N.ar    1  UNL1       -0.2104
     35 C         143.2876  139.6569  158.5786 C.3     1  UNL1        0.2542
     36 O         144.1718  139.1835  159.6939 O.3     1  UNL1       -0.4561
@<TRIPOS>BOND
     1    35    36    1
     2    36    24    1
     3    24    25   ar
     4    25    26   ar
     5    26    27   ar
     6    27    28   ar
     7    28    29   ar
     8    29    30   ar
     9    30    31    1
    10    30    32   ar
    11    32    23    1
    12    23    22    1
    13    22     1    1
    14     1     2    1
    15     1     3    1
    16     3     4    1
    17     4     5    1
    18     5     9    1
    19     9    11    1
    20    11    12    1
    21    12    13   ar
    22    13    14   ar
    23    14    15   ar
    24    15    16   ar
    25    16    17   ar
    26    16    18    1
    27    18    19    1
    28    19    20    1
    29    20    21    1
    30     5     6    1
    31     6     7    1
    32    32    33   ar
    33    33    34   ar
    34    34    24   ar
    35    33    27   ar
    36     7     1    1
    37    17    12   ar
    38    21    15    1
    39     2     8    1
    40     9    10    1
@<TRIPOS>MOLECULE
*****
 36 40 0 0 0
SMALL
GASTEIGER

@<TRIPOS>ATOM
      1 C         137.7808  143.0343  163.1355 C.3     1  UNL1        0.0887
      2 O         137.7683  144.3837  162.4804 O.3     1  UNL1       -0.3867
      3 C         137.7753  141.9902  164.2123 C.3     1  UNL1        0.0283
      4 C         137.8173  140.5360  163.8472 C.3     1  UNL1        0.0181
      5 C         137.8648  140.1259  162.4051 C.3     1  UNL1        0.0544
      6 C         137.8702  141.1700  161.3282 C.3     1  UNL1        0.0181
      7 C         137.8282  142.6243  161.6934 C.3     1  UNL1        0.0283
      8 H         137.7348  145.0735  163.1616 H       1  UNL1        0.2102
      9 N         137.9068  138.6716  162.0399 N.3     1  UNL1       -0.2948
     10 H         137.2412  138.5399  161.2783 H       1  UNL1        0.1235
     11 C         139.1971  138.0456  161.6004 C.3     1  UNL1        0.0957
     12 C         140.4532  138.2874  162.3837 C.ar    1  UNL1       -0.0032
     13 C         140.6931  137.5441  163.6644 C.ar    1  UNL1        0.0004
     14 C         141.9493  137.7859  164.4478 C.ar    1  UNL1        0.0398
     15 C         142.9654  138.7708  163.9506 C.ar    1  UNL1        0.1724
     16 C         142.7255  139.5141  162.6699 C.ar    1  UNL1        0.1721
     17 C         141.4694  139.2724  161.8866 C.ar    1  UNL1        0.0371
     18 O         143.7416  140.4991  162.1728 O.3     1  UNL1       -0.4684
     19 C         144.9978  140.7408  162.9562 C.3     1  UNL1        0.2526
     20 C         145.2377  139.9975  164.2368 C.3     1  UNL1        0.2526
     21 O         144.2216  139.0126  164.7340 O.3     1  UNL1       -0.4684
     22 C         137.7290  143.9130  164.3501 C.3     1  UNL1        0.0317
     23 C         138.8700  144.8374  164.6563 C.3     1  UNL1        0.0327
     24 C         140.8147  141.9510  167.5088 C.ar    1  UNL1        0.2250
     25 C         142.2268  141.5024  167.2753 C.ar    1  UNL1        0.0593
     26 C         142.9907  142.0159  166.0909 C.ar    1  UNL1        0.0254
     27 C         142.3425  142.9780  165.1400 C.ar    1  UNL1        0.0990
     28 N         143.1064  143.4914  163.9556 N.ar    1  UNL1       -0.2400
     29 C         142.4582  144.4535  163.0048 C.ar    1  UNL1        0.1281
     30 C         141.0460  144.9022  163.2383 C.ar    1  UNL1        0.1566
     31 F         140.3978  145.8643  162.2875 F       1  UNL1       -0.2028
     32 C         140.2821  144.3888  164.4227 C.ar    1  UNL1        0.0261
     33 C         140.9304  143.4266  165.3736 C.ar    1  UNL1        0.1002
     34 N         140.1665  142.9131  166.5580 N.ar    1  UNL1       -0.2104
     35 C         140.3997  140.1069  169.2912 C.3     1  UNL1        0.2542
     36 O         140.0508  141.4376  168.6932 O.3     1  UNL1       -0.4561
@<TRIPOS>BOND
     1    35    36    1
     2    36    24    1
     3    24    25   ar
     4    25    26   ar
     5    26    27   ar
     6    27    28   ar
     7    28    29   ar
     8    29    30   ar
     9    30    31    1
    10    30    32   ar
    11    32    23    1
    12    23    22    1
    13    22     1    1
    14     1     2    1
    15     1     3    1
    16     3     4    1
    17     4     5    1
    18     5     9    1
    19     9    11    1
    20    11    12    1
    21    12    13   ar
    22    13    14   ar
    23    14    15   ar
    24    15    16   ar
    25    16    17   ar
    26    16    18    1
    27    18    19    1
    28    19    20    1
    29    20    21    1
    30     5     6    1
    31     6     7    1
    32    32    33   ar
    33    33    34   ar
    34    34    24   ar
    35    33    27   ar
    36     7     1    1
    37    17    12   ar
    38    21    15    1
    39     2     8    1
    40     9    10    1
@<TRIPOS>MOLECULE
*****
 36 40 0 0 0
SMALL
GASTEIGER

@<TRIPOS>ATOM
      1 C         141.8150  137.9721  163.4276 C.3     1  UNL1        0.0887
      2 O         141.2630  137.0222  162.4063 O.3     1  UNL1       -0.3867
      3 C         141.9229  138.7845  164.6840 C.3     1  UNL1        0.0283
      4 C         143.1177  139.6629  164.9088 C.3     1  UNL1        0.0181
      5 C         144.2047  139.7290  163.8772 C.3     1  UNL1        0.0544
      6 C         144.0969  138.9167  162.6209 C.3     1  UNL1        0.0181
      7 C         142.9020  138.0383  162.3961 C.3     1  UNL1        0.0283
      8 H         140.4117  136.6744  162.7150 H       1  UNL1        0.2102
      9 N         145.3996  140.6075  164.1021 N.3     1  UNL1       -0.2948
     10 H         146.2226  140.0483  163.8777 H       1  UNL1        0.1235
     11 C         145.5344  141.8976  163.3489 C.3     1  UNL1        0.0957
     12 C         144.3430  142.7921  163.1741 C.ar    1  UNL1       -0.0032
     13 C         143.6385  143.3464  164.3768 C.ar    1  UNL1        0.0004
     14 C         142.4471  144.2409  164.2020 C.ar    1  UNL1        0.0398
     15 C         141.9603  144.5811  162.8247 C.ar    1  UNL1        0.1724
     16 C         142.6648  144.0268  161.6219 C.ar    1  UNL1        0.1721
     17 C         143.8561  143.1323  161.7968 C.ar    1  UNL1        0.0371
     18 O         142.1779  144.3670  160.2446 O.3     1  UNL1       -0.4684
     19 C         140.9865  145.2614  160.0698 C.3     1  UNL1        0.2526
     20 C         140.2820  145.8157  161.2725 C.3     1  UNL1        0.2526
     21 O         140.7688  145.4756  162.6499 O.3     1  UNL1       -0.4684
     22 C         140.5363  137.5762  164.1045 C.3     1  UNL1        0.0317
     23 C         139.2412  137.6265  163.3494 C.3     1  UNL1        0.0327
     24 C         139.5118  138.7784  159.0077 C.ar    1  UNL1        0.2250
     25 C         138.9636  140.0960  158.5458 C.ar    1  UNL1        0.0593
     26 C         138.3253  141.0297  159.5311 C.ar    1  UNL1        0.0254
     27 C         138.2351  140.6457  160.9783 C.ar    1  UNL1        0.0990
     28 N         137.5967  141.5794  161.9636 N.ar    1  UNL1       -0.2400
     29 C         137.5065  141.1955  163.4108 C.ar    1  UNL1        0.1281
     30 C         138.0547  139.8778  163.8728 C.ar    1  UNL1        0.1566
     31 F         137.9645  139.4938  165.3200 F       1  UNL1       -0.2028
     32 C         138.6930  138.9441  162.8875 C.ar    1  UNL1        0.0261
     33 C         138.7832  139.3281  161.4402 C.ar    1  UNL1        0.1002
     34 N         139.4215  138.3945  160.4549 N.ar    1  UNL1       -0.2104
     35 C         139.6805  137.8219  156.5981 C.3     1  UNL1        0.2542
     36 O         140.1501  137.8448  158.0225 O.3     1  UNL1       -0.4561
@<TRIPOS>BOND
     1    35    36    1
     2    36    24    1
     3    24    25   ar
     4    25    26   ar
     5    26    27   ar
     6    27    28   ar
     7    28    29   ar
     8    29    30   ar
     9    30    31    1
    10    30    32   ar
    11    32    23    1
    12    23    22    1
    13    22     1    1
    14     1     2    1
    15     1     3    1
    16     3     4    1
    17     4     5    1
    18     5     9    1
    19     9    11    1
    20    11    12    1
    21    12    13   ar
    22    13    14   ar
    23    14    15   ar
    24    15    16   ar
    25    16    17   ar
    26    16    18    1
    27    18    19    1
    28    19    20    1
    29    20    21    1
    30     5     6    1
    31     6     7    1
    32    32    33   ar
    33    33    34   ar
    34    34    24   ar
    35    33    27   ar
    36     7     1    1
    37    17    12   ar
    38    21    15    1
    39     2     8    1
    40     9    10    1
@<TRIPOS>MOLECULE
*****
 36 40 0 0 0
SMALL
GASTEIGER

@<TRIPOS>ATOM
      1 C         144.6659  142.5479  163.3918 C.3     1  UNL1        0.0887
      2 O         145.7133  141.9358  162.5095 O.3     1  UNL1       -0.3867
      3 C         143.8095  142.7989  164.5974 C.3     1  UNL1        0.0283
      4 C         142.7671  143.8770  164.5655 C.3     1  UNL1        0.0181
      5 C         142.5811  144.7041  163.3280 C.3     1  UNL1        0.0544
      6 C         143.4375  144.4531  162.1224 C.3     1  UNL1        0.0181
      7 C         144.4799  143.3750  162.1543 C.3     1  UNL1        0.0283
      8 H         146.1668  141.2260  162.9906 H       1  UNL1        0.2102
      9 N         141.5386  145.7822  163.2962 N.3     1  UNL1       -0.2948
     10 H         142.0299  146.6622  163.1394 H       1  UNL1        0.1235
     11 C         140.4274  145.7215  162.2905 C.3     1  UNL1        0.0957
     12 C         139.6132  144.4700  162.1470 C.ar    1  UNL1       -0.0032
     13 C         138.5078  144.1789  163.1183 C.ar    1  UNL1        0.0004
     14 C         137.6935  142.9273  162.9747 C.ar    1  UNL1        0.0398
     15 C         137.9846  141.9669  161.8600 C.ar    1  UNL1        0.1724
     16 C         139.0900  142.2580  160.8886 C.ar    1  UNL1        0.1721
     17 C         139.9042  143.5095  161.0322 C.ar    1  UNL1        0.0371
     18 O         139.3810  141.2975  159.7739 O.3     1  UNL1       -0.4684
     19 C         138.5668  140.0460  159.6303 C.3     1  UNL1        0.2526
     20 C         137.4614  139.7549  160.6017 C.3     1  UNL1        0.2526
     21 O         137.1703  140.7153  161.7164 O.3     1  UNL1       -0.4684
     22 C         145.2156  141.5082  164.3228 C.3     1  UNL1        0.0317
     23 C         145.2434  140.0675  163.9060 C.3     1  UNL1        0.0327
     24 C         143.5160  139.3952  159.8056 C.ar    1  UNL1        0.2250
     25 C         142.2325  138.6352  159.6479 C.ar    1  UNL1        0.0593
     26 C         141.5247  138.0993  160.8570 C.ar    1  UNL1        0.0254
     27 C         142.1005  138.3234  162.2238 C.ar    1  UNL1        0.0990
     28 N         141.3928  137.7875  163.4329 N.ar    1  UNL1       -0.2400
     29 C         141.9685  138.0116  164.7997 C.ar    1  UNL1        0.1281
     30 C         143.2521  138.7716  164.9574 C.ar    1  UNL1        0.1566
     31 F         143.8279  138.9957  166.3242 F       1  UNL1       -0.2028
     32 C         143.9599  139.3075  163.7483 C.ar    1  UNL1        0.0261
     33 C         143.3840  139.0834  162.3815 C.ar    1  UNL1        0.1002
     34 N         144.0918  139.6193  161.1724 N.ar    1  UNL1       -0.2104
     35 C         143.5744  139.8436  157.2472 C.3     1  UNL1        0.2542
     36 O         144.2237  139.9311  158.5965 O.3     1  UNL1       -0.4561
@<TRIPOS>BOND
     1    35    36    1
     2    36    24    1
     3    24    25   ar
     4    25    26   ar
     5    26    27   ar
     6    27    28   ar
     7    28    29   ar
     8    29    30   ar
     9    30    31    1
    10    30    32   ar
    11    32    23    1
    12    23    22    1
    13    22     1    1
    14     1     2    1
    15     1     3    1
    16     3     4    1
    17     4     5    1
    18     5     9    1
    19     9    11    1
    20    11    12    1
    21    12    13   ar
    22    13    14   ar
    23    14    15   ar
    24    15    16   ar
    25    16    17   ar
    26    16    18    1
    27    18    19    1
    28    19    20    1
    29    20    21    1
    30     5     6    1
    31     6     7    1
    32    32    33   ar
    33    33    34   ar
    34    34    24   ar
    35    33    27   ar
    36     7     1    1
    37    17    12   ar
    38    21    15    1
    39     2     8    1
    40     9    10    1
@<TRIPOS>MOLECULE
*****
 36 40 0 0 0
SMALL
GASTEIGER

@<TRIPOS>ATOM
      1 C         143.0242  144.3348  162.9439 C.3     1  UNL1        0.0887
      2 O         142.6238  145.1583  161.7558 O.3     1  UNL1       -0.3867
      3 C         143.0816  143.8328  164.3562 C.3     1  UNL1        0.0283
      4 C         143.9876  142.6910  164.7101 C.3     1  UNL1        0.0181
      5 C         144.8363  142.0511  163.6516 C.3     1  UNL1        0.0544
      6 C         144.7790  142.5530  162.2393 C.3     1  UNL1        0.0181
      7 C         143.8729  143.6949  161.8854 C.3     1  UNL1        0.0283
      8 H         141.9690  145.8205  162.0272 H       1  UNL1        0.2102
      9 N         145.7424  140.9093  164.0056 N.3     1  UNL1       -0.2948
     10 H         146.3412  141.2331  164.7652 H       1  UNL1        0.1235
     11 C         145.1604  139.5975  164.4421 C.3     1  UNL1        0.0957
     12 C         143.8833  139.1028  163.8305 C.ar    1  UNL1       -0.0032
     13 C         143.8827  138.5593  162.4324 C.ar    1  UNL1        0.0004
     14 C         142.6055  138.0646  161.8206 C.ar    1  UNL1        0.0398
     15 C         141.3291  138.1134  162.6069 C.ar    1  UNL1        0.1724
     16 C         141.3297  138.6569  164.0050 C.ar    1  UNL1        0.1721
     17 C         142.6068  139.1516  164.6167 C.ar    1  UNL1        0.0371
     18 O         140.0533  138.7057  164.7913 O.3     1  UNL1       -0.4684
     19 C         138.7761  138.2110  164.1796 C.3     1  UNL1        0.2526
     20 C         138.7755  137.6674  162.7815 C.3     1  UNL1        0.2526
     21 O         140.0519  137.6187  161.9952 O.3     1  UNL1       -0.4684
     22 C         142.0365  145.2606  163.5897 C.3     1  UNL1        0.0317
     23 C         140.7418  145.5752  162.9006 C.3     1  UNL1        0.0327
     24 C         140.2587  142.9427  159.2831 C.ar    1  UNL1        0.2250
     25 C         139.1633  141.9189  159.2414 C.ar    1  UNL1        0.0593
     26 C         138.2288  141.7726  160.4056 C.ar    1  UNL1        0.0254
     27 C         138.3898  142.6501  161.6114 C.ar    1  UNL1        0.0990
     28 N         137.4553  142.5038  162.7756 N.ar    1  UNL1       -0.2400
     29 C         137.6163  143.3812  163.9815 C.ar    1  UNL1        0.1281
     30 C         138.7118  144.4051  164.0232 C.ar    1  UNL1        0.1566
     31 F         138.8728  145.2826  165.2290 F       1  UNL1       -0.2028
     32 C         139.6463  144.5514  162.8590 C.ar    1  UNL1        0.0261
     33 C         139.4852  143.6739  161.6531 C.ar    1  UNL1        0.1002
     34 N         140.4197  143.8202  160.4889 N.ar    1  UNL1       -0.2104
     35 C         142.2744  144.1282  158.1510 C.3     1  UNL1        0.2542
     36 O         141.1932  143.0890  158.1189 O.3     1  UNL1       -0.4561
@<TRIPOS>BOND
     1    35    36    1
     2    36    24    1
     3    24    25   ar
     4    25    26   ar
     5    26    27   ar
     6    27    28   ar
     7    28    29   ar
     8    29    30   ar
     9    30    31    1
    10    30    32   ar
    11    32    23    1
    12    23    22    1
    13    22     1    1
    14     1     2    1
    15     1     3    1
    16     3     4    1
    17     4     5    1
    18     5     9    1
    19     9    11    1
    20    11    12    1
    21    12    13   ar
    22    13    14   ar
    23    14    15   ar
    24    15    16   ar
    25    16    17   ar
    26    16    18    1
    27    18    19    1
    28    19    20    1
    29    20    21    1
    30     5     6    1
    31     6     7    1
    32    32    33   ar
    33    33    34   ar
    34    34    24   ar
    35    33    27   ar
    36     7     1    1
    37    17    12   ar
    38    21    15    1
    39     2     8    1
    40     9    10    1
@<TRIPOS>MOLECULE
*****
 36 40 0 0 0
SMALL
GASTEIGER

@<TRIPOS>ATOM
      1 C         143.1685  143.9123  162.5296 C.3     1  UNL1        0.0887
      2 O         144.3837  144.0541  163.3975 O.3     1  UNL1       -0.3867
      3 C         142.2916  143.4803  161.3919 C.3     1  UNL1        0.0283
      4 C         140.8628  143.9329  161.3326 C.3     1  UNL1        0.0181
      5 C         140.3108  144.8174  162.4111 C.3     1  UNL1        0.0544
      6 C         141.1877  145.2493  163.5488 C.3     1  UNL1        0.0181
      7 C         142.6166  144.7967  163.6081 C.3     1  UNL1        0.0283
      8 H         145.1180  143.5524  163.0102 H       1  UNL1        0.2102
      9 N         138.8819  145.2699  162.3518 N.3     1  UNL1       -0.2948
     10 H         138.6357  145.3392  161.3644 H       1  UNL1        0.1235
     11 C         137.8089  144.4538  163.0094 C.3     1  UNL1        0.0957
     12 C         138.0619  143.0144  163.3471 C.ar    1  UNL1       -0.0032
     13 C         138.5452  142.6392  164.7167 C.ar    1  UNL1        0.0004
     14 C         138.7983  141.1997  165.0544 C.ar    1  UNL1        0.0398
     15 C         138.5682  140.1357  164.0226 C.ar    1  UNL1        0.1724
     16 C         138.0849  140.5109  162.6530 C.ar    1  UNL1        0.1721
     17 C         137.8319  141.9502  162.3153 C.ar    1  UNL1        0.0371
     18 O         137.8549  139.4467  161.6213 O.3     1  UNL1       -0.4684
     19 C         138.1079  138.0073  161.9590 C.3     1  UNL1        0.2526
     20 C         138.5912  137.6321  163.3286 C.3     1  UNL1        0.2526
     21 O         138.8213  138.6962  164.3603 O.3     1  UNL1       -0.4684
     22 C         144.1425  143.0771  161.7526 C.3     1  UNL1        0.0317
     23 C         144.8185  141.9090  162.4075 C.3     1  UNL1        0.0327
     24 C         142.9775  141.4321  166.4859 C.ar    1  UNL1        0.2250
     25 C         142.1911  140.1977  166.8140 C.ar    1  UNL1        0.0593
     26 C         142.0182  139.1223  165.7827 C.ar    1  UNL1        0.0254
     27 C         142.6319  139.2812  164.4232 C.ar    1  UNL1        0.0990
     28 N         142.4590  138.2058  163.3919 N.ar    1  UNL1       -0.2400
     29 C         143.0727  138.3648  162.0325 C.ar    1  UNL1        0.1281
     30 C         143.8592  139.5992  161.7043 C.ar    1  UNL1        0.1566
     31 F         144.4728  139.7582  160.3448 F       1  UNL1       -0.2028
     32 C         144.0320  140.6746  162.7356 C.ar    1  UNL1        0.0261
     33 C         143.4183  140.5156  164.0951 C.ar    1  UNL1        0.1002
     34 N         143.5912  141.5910  165.1264 N.ar    1  UNL1       -0.2104
     35 C         143.1415  142.1565  168.9755 C.3     1  UNL1        0.2542
     36 O         143.1504  142.5075  167.5172 O.3     1  UNL1       -0.4561
@<TRIPOS>BOND
     1    35    36    1
     2    36    24    1
     3    24    25   ar
     4    25    26   ar
     5    26    27   ar
     6    27    28   ar
     7    28    29   ar
     8    29    30   ar
     9    30    31    1
    10    30    32   ar
    11    32    23    1
    12    23    22    1
    13    22     1    1
    14     1     2    1
    15     1     3    1
    16     3     4    1
    17     4     5    1
    18     5     9    1
    19     9    11    1
    20    11    12    1
    21    12    13   ar
    22    13    14   ar
    23    14    15   ar
    24    15    16   ar
    25    16    17   ar
    26    16    18    1
    27    18    19    1
    28    19    20    1
    29    20    21    1
    30     5     6    1
    31     6     7    1
    32    32    33   ar
    33    33    34   ar
    34    34    24   ar
    35    33    27   ar
    36     7     1    1
    37    17    12   ar
    38    21    15    1
    39     2     8    1
    40     9    10    1
