@<TRIPOS>MOLECULE
*****
 37 40 0 0 0
SMALL
GASTEIGER

@<TRIPOS>ATOM
      1 C         139.4082  139.6708  165.9152 C.3     1  UNL1        0.0815
      2 N         139.6681  140.4838  167.1487 N.3     1  UNL1       -0.2719
      3 C         139.3320  139.9253  168.4996 C.3     1  UNL1        0.0748
      4 C         139.5919  140.7383  169.7331 C.3     1  UNL1        0.0528
      5 C         140.1880  142.1097  169.6156 C.3     1  UNL1        0.1779
      6 O         140.0412  142.0163  171.1055 O.3     1  UNL1       -0.3786
      7 C         140.5242  142.6682  168.2646 C.3     1  UNL1        0.0528
      8 C         140.2642  141.8552  167.0311 C.3     1  UNL1        0.0748
      9 H         139.6563  141.1572  171.3393 H       1  UNL1        0.2106
     10 C         140.7331  143.4488  170.0156 C.3     1  UNL1        0.4194
     11 F         141.2782  144.7878  170.4155 F       1  UNL1       -0.1676
     12 F         142.0046  143.1516  169.2773 F       1  UNL1       -0.1676
     13 F         139.4616  143.7459  170.7538 F       1  UNL1       -0.1676
     14 C         140.4296  138.6799  165.4410 C.3     1  UNL1        0.1056
     15 O         143.0757  140.0871  165.3083 O.2     1  UNL1       -0.2748
     16 C         142.4315  139.5810  164.0517 C.2     1  UNL1        0.2254
     17 N         141.1085  138.8774  164.1181 N.am    1  UNL1       -0.3028
     18 H         140.6857  138.5453  163.2934 H       1  UNL1        0.1495
     19 C         143.1105  139.7786  162.7288 C.3     1  UNL1        0.0875
     20 C         143.7512  140.2810  161.4690 C.3     1  UNL1        0.0127
     21 C         144.1879  139.0922  160.6652 C.3     1  UNL1        0.0008
     22 C         143.8171  137.8551  161.4282 C.3     1  UNL1        0.0008
     23 C         143.1512  138.2794  162.7037 C.3     1  UNL1        0.0127
     24 C         142.9278  141.2365  163.0305 C.ar    1  UNL1       -0.0146
     25 C         141.5496  141.8275  163.0690 C.ar    1  UNL1       -0.0030
     26 C         141.3669  143.2854  163.3707 C.ar    1  UNL1        0.0111
     27 C         142.5624  144.1525  163.6340 C.ar    1  UNL1        0.0577
     28 CL        142.3797  145.6104  163.9357 Cl      1  UNL1       -0.0822
     29 C         143.9406  143.5615  163.5955 C.ar    1  UNL1        0.0111
     30 C         144.1232  142.1035  163.2937 C.ar    1  UNL1       -0.0030
     31 C         138.1268  139.8486  165.1560 C.3     1  UNL1        0.0440
     32 C         138.0443  140.8588  164.0501 C.ar    1  UNL1       -0.0208
     33 C         137.8122  142.3054  164.3716 C.ar    1  UNL1       -0.0042
     34 C         137.7297  143.3155  163.2658 C.ar    1  UNL1       -0.0003
     35 C         137.8792  142.8790  161.8385 C.ar    1  UNL1       -0.0000
     36 C         138.1112  141.4323  161.5170 C.ar    1  UNL1       -0.0003
     37 C         138.1938  140.4222  162.6229 C.ar    1  UNL1       -0.0042
@<TRIPOS>BOND
     1    15    16    2
     2    16    17   am
     3    17    14    1
     4     1    14    1
     5     1    31    1
     6    31    32    1
     7    32    33   ar
     8    33    34   ar
     9    34    35   ar
    10    35    36   ar
    11    36    37   ar
    12     1     2    1
    13     2     3    1
    14     3     4    1
    15     4     5    1
    16     5     6    1
    17     5    10    1
    18    10    11    1
    19    10    12    1
    20    10    13    1
    21     5     7    1
    22     7     8    1
    23    16    19    1
    24    19    24    1
    25    24    25   ar
    26    25    26   ar
    27    26    27   ar
    28    27    28    1
    29    27    29   ar
    30    29    30   ar
    31    19    20    1
    32    20    21    1
    33    21    22    1
    34    22    23    1
    35    37    32   ar
    36     8     2    1
    37    23    19    1
    38    30    24   ar
    39    17    18    1
    40     6     9    1
@<TRIPOS>MOLECULE
*****
 37 40 0 0 0
SMALL
GASTEIGER

@<TRIPOS>ATOM
      1 C         143.6515  142.0534  163.3405 C.3     1  UNL1        0.0815
      2 N         142.8690  140.7941  163.1131 N.3     1  UNL1       -0.2719
      3 C         143.5842  139.4856  162.9512 C.3     1  UNL1        0.0748
      4 C         142.8017  138.2262  162.7239 C.3     1  UNL1        0.0528
      5 C         141.3040  138.2753  162.6583 C.3     1  UNL1        0.1779
      6 O         141.5259  136.8067  162.4484 O.3     1  UNL1       -0.3786
      7 C         140.5887  139.5839  162.8202 C.3     1  UNL1        0.0528
      8 C         141.3712  140.8432  163.0476 C.3     1  UNL1        0.0748
      9 H         142.4771  136.6176  162.4663 H       1  UNL1        0.2106
     10 C         139.8833  137.8144  162.5199 C.3     1  UNL1        0.4194
     11 F         138.4626  137.3535  162.3815 F       1  UNL1       -0.1676
     12 F         139.9949  137.9189  161.0277 F       1  UNL1       -0.1676
     13 F         139.7718  137.7099  164.0121 F       1  UNL1       -0.1676
     14 C         144.2730  142.3188  164.6797 C.3     1  UNL1        0.1056
     15 O         142.7568  140.3437  166.3529 O.2     1  UNL1       -0.2748
     16 C         142.6651  141.8099  166.6559 C.2     1  UNL1        0.2254
     17 N         143.4232  142.7975  165.8193 N.am    1  UNL1       -0.3028
     18 H         143.3630  143.7598  166.0181 H       1  UNL1        0.1495
     19 C         141.8153  142.2886  167.7955 C.3     1  UNL1        0.0875
     20 C         140.7314  142.7424  168.7279 C.3     1  UNL1        0.0127
     21 C         141.3587  143.0415  170.0572 C.3     1  UNL1        0.0008
     22 C         142.8303  142.7726  169.9464 C.3     1  UNL1        0.0008
     23 C         143.1124  142.3072  168.5486 C.3     1  UNL1        0.0127
     24 C         140.6958  142.1699  166.8043 C.ar    1  UNL1       -0.0146
     25 C         140.3655  143.3235  165.9042 C.ar    1  UNL1       -0.0030
     26 C         139.2461  143.2048  164.9129 C.ar    1  UNL1        0.0111
     27 C         138.4568  141.9325  164.8216 C.ar    1  UNL1        0.0577
     28 CL        137.3373  141.8138  163.8304 Cl      1  UNL1       -0.0822
     29 C         138.7870  140.7788  165.7217 C.ar    1  UNL1        0.0111
     30 C         139.9066  140.8976  166.7131 C.ar    1  UNL1       -0.0030
     31 C         143.8125  143.0474  162.2287 C.3     1  UNL1        0.0440
     32 C         142.6523  143.9027  161.8134 C.ar    1  UNL1       -0.0208
     33 C         142.1944  143.9033  160.3850 C.ar    1  UNL1       -0.0042
     34 C         141.0342  144.7585  159.9697 C.ar    1  UNL1       -0.0003
     35 C         140.3319  145.6131  160.9828 C.ar    1  UNL1       -0.0000
     36 C         140.7898  145.6125  162.4112 C.ar    1  UNL1       -0.0003
     37 C         141.9500  144.7573  162.8265 C.ar    1  UNL1       -0.0042
@<TRIPOS>BOND
     1    15    16    2
     2    16    17   am
     3    17    14    1
     4     1    14    1
     5     1    31    1
     6    31    32    1
     7    32    33   ar
     8    33    34   ar
     9    34    35   ar
    10    35    36   ar
    11    36    37   ar
    12     1     2    1
    13     2     3    1
    14     3     4    1
    15     4     5    1
    16     5     6    1
    17     5    10    1
    18    10    11    1
    19    10    12    1
    20    10    13    1
    21     5     7    1
    22     7     8    1
    23    16    19    1
    24    19    24    1
    25    24    25   ar
    26    25    26   ar
    27    26    27   ar
    28    27    28    1
    29    27    29   ar
    30    29    30   ar
    31    19    20    1
    32    20    21    1
    33    21    22    1
    34    22    23    1
    35    37    32   ar
    36     8     2    1
    37    23    19    1
    38    30    24   ar
    39    17    18    1
    40     6     9    1
@<TRIPOS>MOLECULE
*****
 37 40 0 0 0
SMALL
GASTEIGER

@<TRIPOS>ATOM
      1 C         143.1855  139.5513  163.5649 C.3     1  UNL1        0.0815
      2 N         143.1098  141.0267  163.3050 N.3     1  UNL1       -0.2719
      3 C         144.3668  141.8146  163.0832 C.3     1  UNL1        0.0748
      4 C         144.2911  143.2900  162.8232 C.3     1  UNL1        0.0528
      5 C         142.9585  143.9774  162.7851 C.3     1  UNL1        0.1779
      6 O         143.8616  145.1449  162.5178 O.3     1  UNL1       -0.3786
      7 C         141.7015  143.1895  163.0069 C.3     1  UNL1        0.0528
      8 C         141.7771  141.7142  163.2668 C.3     1  UNL1        0.0748
      9 H         144.7842  144.8455  162.5125 H       1  UNL1        0.2106
     10 C         141.9395  145.0704  162.6541 C.3     1  UNL1        0.4194
     11 F         140.9205  146.1633  162.5231 F       1  UNL1       -0.1676
     12 F         142.1296  145.4209  164.1001 F       1  UNL1       -0.1676
     13 F         141.7494  144.7199  161.2080 F       1  UNL1       -0.1676
     14 C         143.6305  139.0479  164.9061 C.3     1  UNL1        0.1056
     15 O         143.1735  141.5378  166.5158 O.2     1  UNL1       -0.2748
     16 C         142.4408  140.2756  166.8623 C.2     1  UNL1        0.2254
     17 N         142.6693  139.0307  166.0574 N.am    1  UNL1       -0.3028
     18 H         142.1884  138.2023  166.2849 H       1  UNL1        0.1495
     19 C         141.4795  140.2584  168.0138 C.3     1  UNL1        0.0875
     20 C         140.3284  140.3919  168.9662 C.3     1  UNL1        0.0127
     21 C         140.7262  139.7573  170.2658 C.3     1  UNL1        0.0008
     22 C         142.1232  139.2317  170.1167 C.3     1  UNL1        0.0008
     23 C         142.5887  139.5414  168.7247 C.3     1  UNL1        0.0127
     24 C         140.5713  140.9791  167.0621 C.ar    1  UNL1       -0.0146
     25 C         139.6571  140.2007  166.1629 C.ar    1  UNL1       -0.0030
     26 C         138.7489  140.9213  165.2112 C.ar    1  UNL1        0.0111
     27 C         138.7547  142.4204  165.1586 C.ar    1  UNL1        0.0577
     28 CL        137.8465  143.1411  164.2070 Cl      1  UNL1       -0.0822
     29 C         139.6688  143.1989  166.0578 C.ar    1  UNL1        0.0111
     30 C         140.5771  142.4781  167.0095 C.ar    1  UNL1       -0.0030
     31 C         142.8161  138.5794  162.4838 C.3     1  UNL1        0.0440
     32 C         141.3760  138.3811  162.1135 C.ar    1  UNL1       -0.0208
     33 C         140.9304  138.5896  160.6965 C.ar    1  UNL1       -0.0042
     34 C         139.4905  138.3913  160.3263 C.ar    1  UNL1       -0.0003
     35 C         138.4961  137.9844  161.3731 C.ar    1  UNL1       -0.0000
     36 C         138.9417  137.7759  162.7901 C.ar    1  UNL1       -0.0003
     37 C         140.3817  137.9742  163.1603 C.ar    1  UNL1       -0.0042
@<TRIPOS>BOND
     1    15    16    2
     2    16    17   am
     3    17    14    1
     4     1    14    1
     5     1    31    1
     6    31    32    1
     7    32    33   ar
     8    33    34   ar
     9    34    35   ar
    10    35    36   ar
    11    36    37   ar
    12     1     2    1
    13     2     3    1
    14     3     4    1
    15     4     5    1
    16     5     6    1
    17     5    10    1
    18    10    11    1
    19    10    12    1
    20    10    13    1
    21     5     7    1
    22     7     8    1
    23    16    19    1
    24    19    24    1
    25    24    25   ar
    26    25    26   ar
    27    26    27   ar
    28    27    28    1
    29    27    29   ar
    30    29    30   ar
    31    19    20    1
    32    20    21    1
    33    21    22    1
    34    22    23    1
    35    37    32   ar
    36     8     2    1
    37    23    19    1
    38    30    24   ar
    39    17    18    1
    40     6     9    1
@<TRIPOS>MOLECULE
*****
 37 40 0 0 0
SMALL
GASTEIGER

@<TRIPOS>ATOM
      1 C         139.5567  140.2092  165.8694 C.3     1  UNL1        0.0815
      2 N         140.2586  140.6569  167.1172 N.3     1  UNL1       -0.2719
      3 C         139.7368  140.2423  168.4610 C.3     1  UNL1        0.0748
      4 C         140.4386  140.6900  169.7088 C.3     1  UNL1        0.0528
      5 C         141.6622  141.5522  169.6128 C.3     1  UNL1        0.1779
      6 O         141.5521  141.4213  171.1031 O.3     1  UNL1       -0.3786
      7 C         142.1841  141.9669  168.2690 C.3     1  UNL1        0.0528
      8 C         141.4822  141.5192  167.0212 C.3     1  UNL1        0.0748
      9 H         140.7827  140.8733  171.3235 H       1  UNL1        0.2106
     10 C         142.8476  142.3690  170.0344 C.3     1  UNL1        0.4194
     11 F         144.0329  143.1859  170.4560 F       1  UNL1       -0.1676
     12 F         143.7074  141.1405  169.9968 F       1  UNL1       -0.1676
     13 F         141.9877  143.5976  170.0719 F       1  UNL1       -0.1676
     14 C         140.0783  139.0346  165.0958 C.3     1  UNL1        0.1056
     15 O         143.0765  139.0463  165.1972 O.2     1  UNL1       -0.2748
     16 C         142.3694  139.2607  163.8918 C.2     1  UNL1        0.2254
     17 N         140.8703  139.2548  163.8411 N.am    1  UNL1       -0.3028
     18 H         140.4061  139.3954  162.9844 H       1  UNL1        0.1495
     19 C         143.1614  139.4808  162.6371 C.3     1  UNL1        0.0875
     20 C         144.0017  139.9867  161.5022 C.3     1  UNL1        0.0127
     21 C         144.1244  138.8866  160.4900 C.3     1  UNL1        0.0008
     22 C         143.3599  137.7006  160.9993 C.3     1  UNL1        0.0008
     23 C         142.7648  138.0680  162.3263 C.3     1  UNL1        0.0127
     24 C         143.3924  140.8476  163.2101 C.ar    1  UNL1       -0.0146
     25 C         144.7367  141.2092  163.7689 C.ar    1  UNL1       -0.0030
     26 C         144.9677  142.5760  164.3420 C.ar    1  UNL1        0.0111
     27 C         143.8544  143.5813  164.3563 C.ar    1  UNL1        0.0577
     28 CL        144.0855  144.9481  164.9294 Cl      1  UNL1       -0.0822
     29 C         142.5102  143.2198  163.7975 C.ar    1  UNL1        0.0111
     30 C         142.2792  141.8529  163.2244 C.ar    1  UNL1       -0.0030
     31 C         138.3334  140.9361  165.3951 C.3     1  UNL1        0.0440
     32 C         138.4732  142.1713  164.5555 C.ar    1  UNL1       -0.0208
     33 C         138.1473  142.1242  163.0921 C.ar    1  UNL1       -0.0042
     34 C         138.2871  143.3593  162.2525 C.ar    1  UNL1       -0.0003
     35 C         138.7527  144.6415  162.8764 C.ar    1  UNL1       -0.0000
     36 C         139.0786  144.6886  164.3398 C.ar    1  UNL1       -0.0003
     37 C         138.9388  143.4535  165.1793 C.ar    1  UNL1       -0.0042
@<TRIPOS>BOND
     1    15    16    2
     2    16    17   am
     3    17    14    1
     4     1    14    1
     5     1    31    1
     6    31    32    1
     7    32    33   ar
     8    33    34   ar
     9    34    35   ar
    10    35    36   ar
    11    36    37   ar
    12     1     2    1
    13     2     3    1
    14     3     4    1
    15     4     5    1
    16     5     6    1
    17     5    10    1
    18    10    11    1
    19    10    12    1
    20    10    13    1
    21     5     7    1
    22     7     8    1
    23    16    19    1
    24    19    24    1
    25    24    25   ar
    26    25    26   ar
    27    26    27   ar
    28    27    28    1
    29    27    29   ar
    30    29    30   ar
    31    19    20    1
    32    20    21    1
    33    21    22    1
    34    22    23    1
    35    37    32   ar
    36     8     2    1
    37    23    19    1
    38    30    24   ar
    39    17    18    1
    40     6     9    1
@<TRIPOS>MOLECULE
*****
 37 40 0 0 0
SMALL
GASTEIGER

@<TRIPOS>ATOM
      1 C         142.5024  139.4636  165.9282 C.3     1  UNL1        0.0815
      2 N         141.9858  139.9599  167.2461 N.3     1  UNL1       -0.2719
      3 C         142.4198  139.2968  168.5196 C.3     1  UNL1        0.0748
      4 C         141.9031  139.7932  169.8375 C.3     1  UNL1        0.0528
      5 C         140.9525  140.9526  169.8818 C.3     1  UNL1        0.1779
      6 O         141.0706  140.6564  171.3476 O.3     1  UNL1       -0.3786
      7 C         140.5185  141.6158  168.6082 C.3     1  UNL1        0.0528
      8 C         141.0351  141.1194  167.2904 C.3     1  UNL1        0.0748
      9 H         141.6719  139.9066  171.4785 H       1  UNL1        0.2106
     10 C         140.0429  142.0092  170.4352 C.3     1  UNL1        0.4194
     11 F         139.1333  143.0658  170.9885 F       1  UNL1       -0.1676
     12 F         138.8523  141.1636  170.0925 F       1  UNL1       -0.1676
     13 F         141.2335  142.8548  170.7778 F       1  UNL1       -0.1676
     14 C         141.7090  138.4640  165.1400 C.3     1  UNL1        0.1056
     15 O         138.8086  139.1859  165.3979 O.2     1  UNL1       -0.2748
     16 C         139.4854  139.2655  164.0616 C.2     1  UNL1        0.2254
     17 N         140.9355  138.9046  163.9326 N.am    1  UNL1       -0.3028
     18 H         141.3797  138.9568  163.0556 H       1  UNL1        0.1495
     19 C         138.7119  139.7061  162.8542 C.3     1  UNL1        0.0875
     20 C         137.9570  140.4304  161.7793 C.3     1  UNL1        0.0127
     21 C         137.5633  139.4289  160.7342 C.3     1  UNL1        0.0008
     22 C         138.0750  138.0857  161.1632 C.3     1  UNL1        0.0008
     23 C         138.7849  138.2571  162.4736 C.3     1  UNL1        0.0127
     24 C         138.8006  141.0631  163.4873 C.ar    1  UNL1       -0.0146
     25 C         140.1363  141.7226  163.6634 C.ar    1  UNL1       -0.0030
     26 C         140.2250  143.0796  164.2965 C.ar    1  UNL1        0.0111
     27 C         138.9780  143.7770  164.7535 C.ar    1  UNL1        0.0577
     28 CL        139.0668  145.1339  165.3866 Cl      1  UNL1       -0.0822
     29 C         137.6424  143.1174  164.5775 C.ar    1  UNL1        0.0111
     30 C         137.5537  141.7604  163.9443 C.ar    1  UNL1       -0.0030
     31 C         143.8125  139.9668  165.3987 C.3     1  UNL1        0.0440
     32 C         143.8755  141.2816  164.6793 C.ar    1  UNL1       -0.0208
     33 C         143.9155  142.5621  165.4594 C.ar    1  UNL1       -0.0042
     34 C         143.9785  143.8769  164.7401 C.ar    1  UNL1       -0.0003
     35 C         144.0014  143.9111  163.2407 C.ar    1  UNL1       -0.0000
     36 C         143.9613  142.6305  162.4606 C.ar    1  UNL1       -0.0003
     37 C         143.8984  141.3158  163.1799 C.ar    1  UNL1       -0.0042
@<TRIPOS>BOND
     1    15    16    2
     2    16    17   am
     3    17    14    1
     4     1    14    1
     5     1    31    1
     6    31    32    1
     7    32    33   ar
     8    33    34   ar
     9    34    35   ar
    10    35    36   ar
    11    36    37   ar
    12     1     2    1
    13     2     3    1
    14     3     4    1
    15     4     5    1
    16     5     6    1
    17     5    10    1
    18    10    11    1
    19    10    12    1
    20    10    13    1
    21     5     7    1
    22     7     8    1
    23    16    19    1
    24    19    24    1
    25    24    25   ar
    26    25    26   ar
    27    26    27   ar
    28    27    28    1
    29    27    29   ar
    30    29    30   ar
    31    19    20    1
    32    20    21    1
    33    21    22    1
    34    22    23    1
    35    37    32   ar
    36     8     2    1
    37    23    19    1
    38    30    24   ar
    39    17    18    1
    40     6     9    1
@<TRIPOS>MOLECULE
*****
 37 40 0 0 0
SMALL
GASTEIGER

@<TRIPOS>ATOM
      1 C         138.6793  139.3144  164.0772 C.3     1  UNL1        0.0815
      2 N         138.8005  140.7216  163.5721 N.3     1  UNL1       -0.2719
      3 C         137.5667  141.5124  163.2523 C.3     1  UNL1        0.0748
      4 C         137.6878  142.9196  162.7472 C.3     1  UNL1        0.0528
      5 C         139.0427  143.5360  162.5619 C.3     1  UNL1        0.1779
      6 O         138.1747  144.6788  162.1251 O.3     1  UNL1       -0.3786
      7 C         140.2765  142.7451  162.8816 C.3     1  UNL1        0.0528
      8 C         140.1554  141.3379  163.3867 C.3     1  UNL1        0.0748
      9 H         137.2421  144.4207  162.1926 H       1  UNL1        0.2106
     10 C         140.0962  144.5492  162.2248 C.3     1  UNL1        0.4194
     11 F         141.1496  145.5624  161.8879 F       1  UNL1       -0.1676
     12 F         139.7284  144.4489  160.7741 F       1  UNL1       -0.1676
     13 F         140.4639  144.6495  163.6757 F       1  UNL1       -0.1676
     14 C         138.4155  139.0597  165.5317 C.3     1  UNL1        0.1056
     15 O         139.6573  141.5176  166.7216 O.2     1  UNL1       -0.2748
     16 C         140.1827  140.1606  167.0856 C.2     1  UNL1        0.2254
     17 N         139.5618  138.9316  166.4907 N.am    1  UNL1       -0.3028
     18 H         139.9065  138.0409  166.7296 H       1  UNL1        0.1495
     19 C         141.3290  140.0326  168.0447 C.3     1  UNL1        0.0875
     20 C         142.6507  139.9129  168.7438 C.3     1  UNL1        0.0127
     21 C         142.3888  139.8256  170.2182 C.3     1  UNL1        0.0008
     22 C         140.9053  139.8914  170.4303 C.3     1  UNL1        0.0008
     23 C         140.2503  140.0192  169.0869 C.3     1  UNL1        0.0127
     24 C         142.1680  140.0726  166.8019 C.ar    1  UNL1       -0.0146
     25 C         142.5960  141.3908  166.2282 C.ar    1  UNL1       -0.0030
     26 C         143.4351  141.4309  164.9854 C.ar    1  UNL1        0.0111
     27 C         143.8461  140.1528  164.3164 C.ar    1  UNL1        0.0577
     28 CL        144.6851  140.1929  163.0737 Cl      1  UNL1       -0.0822
     29 C         143.4181  138.8346  164.8902 C.ar    1  UNL1        0.0111
     30 C         142.5790  138.7945  166.1330 C.ar    1  UNL1       -0.0030
     31 C         138.8221  138.1619  163.1278 C.3     1  UNL1        0.0440
     32 C         139.8701  138.1990  162.0552 C.ar    1  UNL1       -0.0208
     33 C         139.5099  138.6473  160.6699 C.ar    1  UNL1       -0.0042
     34 C         140.5578  138.6844  159.5974 C.ar    1  UNL1       -0.0003
     35 C         141.9661  138.2733  159.9102 C.ar    1  UNL1       -0.0000
     36 C         142.3263  137.8250  161.2956 C.ar    1  UNL1       -0.0003
     37 C         141.2783  137.7878  162.3681 C.ar    1  UNL1       -0.0042
@<TRIPOS>BOND
     1    15    16    2
     2    16    17   am
     3    17    14    1
     4     1    14    1
     5     1    31    1
     6    31    32    1
     7    32    33   ar
     8    33    34   ar
     9    34    35   ar
    10    35    36   ar
    11    36    37   ar
    12     1     2    1
    13     2     3    1
    14     3     4    1
    15     4     5    1
    16     5     6    1
    17     5    10    1
    18    10    11    1
    19    10    12    1
    20    10    13    1
    21     5     7    1
    22     7     8    1
    23    16    19    1
    24    19    24    1
    25    24    25   ar
    26    25    26   ar
    27    26    27   ar
    28    27    28    1
    29    27    29   ar
    30    29    30   ar
    31    19    20    1
    32    20    21    1
    33    21    22    1
    34    22    23    1
    35    37    32   ar
    36     8     2    1
    37    23    19    1
    38    30    24   ar
    39    17    18    1
    40     6     9    1
@<TRIPOS>MOLECULE
*****
 37 40 0 0 0
SMALL
GASTEIGER

@<TRIPOS>ATOM
      1 C         139.1469  139.0187  163.5838 C.3     1  UNL1        0.0815
      2 N         138.9528  140.4578  163.2081 N.3     1  UNL1       -0.2719
      3 C         137.6530  141.1429  163.5099 C.3     1  UNL1        0.0748
      4 C         137.4588  142.5821  163.1343 C.3     1  UNL1        0.0528
      5 C         138.5644  143.3362  162.4569 C.3     1  UNL1        0.1779
      6 O         137.5230  144.4131  162.5325 O.3     1  UNL1       -0.3786
      7 C         139.8643  142.6511  162.1550 C.3     1  UNL1        0.0528
      8 C         140.0585  141.2119  162.5307 C.3     1  UNL1        0.0748
      9 H         136.7259  144.0626  162.9601 H       1  UNL1        0.2106
     10 C         139.3084  144.4643  161.8057 C.3     1  UNL1        0.4194
     11 F         140.0524  145.5923  161.1545 F       1  UNL1       -0.1676
     12 F         139.3195  145.2086  163.1079 F       1  UNL1       -0.1676
     13 F         139.2973  143.7199  160.5034 F       1  UNL1       -0.1676
     14 C         138.9311  138.5778  165.0012 C.3     1  UNL1        0.1056
     15 O         141.5242  139.3128  166.3185 O.2     1  UNL1       -0.2748
     16 C         140.2454  139.9539  166.7700 C.2     1  UNL1        0.2254
     17 N         138.9489  139.5864  166.1113 N.am    1  UNL1       -0.3028
     18 H         138.1096  140.0072  166.4076 H       1  UNL1        0.1495
     19 C         140.2633  140.9626  167.8801 C.3     1  UNL1        0.0875
     20 C         140.4647  142.1340  168.7951 C.3     1  UNL1        0.0127
     21 C         139.7073  141.8681  170.0622 C.3     1  UNL1        0.0008
     22 C         139.0377  140.5323  169.9304 C.3     1  UNL1        0.0008
     23 C         139.3814  139.9726  168.5818 C.3     1  UNL1        0.0127
     24 C         141.1414  141.7416  166.9464 C.ar    1  UNL1       -0.0146
     25 C         142.6335  141.6284  167.0504 C.ar    1  UNL1       -0.0030
     26 C         143.5117  142.4074  166.1166 C.ar    1  UNL1        0.0111
     27 C         142.8977  143.2998  165.0788 C.ar    1  UNL1        0.0577
     28 CL        143.7759  144.0788  164.1451 Cl      1  UNL1       -0.0822
     29 C         141.4056  143.4130  164.9749 C.ar    1  UNL1        0.0111
     30 C         140.5274  142.6339  165.9087 C.ar    1  UNL1       -0.0030
     31 C         139.5569  138.0204  162.5420 C.3     1  UNL1        0.0440
     32 C         140.9141  138.1109  161.9095 C.ar    1  UNL1       -0.0208
     33 C         142.1459  138.0058  162.7589 C.ar    1  UNL1       -0.0042
     34 C         143.5030  138.0963  162.1264 C.ar    1  UNL1       -0.0003
     35 C         143.6282  138.2918  160.6445 C.ar    1  UNL1       -0.0000
     36 C         142.3964  138.3968  159.7951 C.ar    1  UNL1       -0.0003
     37 C         141.0394  138.3064  160.4276 C.ar    1  UNL1       -0.0042
@<TRIPOS>BOND
     1    15    16    2
     2    16    17   am
     3    17    14    1
     4     1    14    1
     5     1    31    1
     6    31    32    1
     7    32    33   ar
     8    33    34   ar
     9    34    35   ar
    10    35    36   ar
    11    36    37   ar
    12     1     2    1
    13     2     3    1
    14     3     4    1
    15     4     5    1
    16     5     6    1
    17     5    10    1
    18    10    11    1
    19    10    12    1
    20    10    13    1
    21     5     7    1
    22     7     8    1
    23    16    19    1
    24    19    24    1
    25    24    25   ar
    26    25    26   ar
    27    26    27   ar
    28    27    28    1
    29    27    29   ar
    30    29    30   ar
    31    19    20    1
    32    20    21    1
    33    21    22    1
    34    22    23    1
    35    37    32   ar
    36     8     2    1
    37    23    19    1
    38    30    24   ar
    39    17    18    1
    40     6     9    1
@<TRIPOS>MOLECULE
*****
 37 40 0 0 0
SMALL
GASTEIGER

@<TRIPOS>ATOM
      1 C         143.4500  142.3927  164.7144 C.3     1  UNL1        0.0815
      2 N         142.3600  143.0076  163.8875 N.3     1  UNL1       -0.2719
      3 C         141.2901  142.1407  163.2928 C.3     1  UNL1        0.0748
      4 C         140.2000  142.7555  162.4659 C.3     1  UNL1        0.0528
      5 C         140.1799  144.2373  162.2337 C.3     1  UNL1        0.1779
      6 O         138.9553  143.8366  161.4657 O.3     1  UNL1       -0.3786
      7 C         141.2498  145.1043  162.8285 C.3     1  UNL1        0.0528
      8 C         142.3399  144.4894  163.6553 C.3     1  UNL1        0.0748
      9 H         138.8354  142.8760  161.5264 H       1  UNL1        0.2106
     10 C         139.7344  145.5800  161.7348 C.3     1  UNL1        0.4194
     11 F         139.2889  146.9226  161.2360 F       1  UNL1       -0.1676
     12 F         140.9510  145.6588  160.8610 F       1  UNL1       -0.1676
     13 F         138.5178  145.5010  162.6087 F       1  UNL1       -0.1676
     14 C         143.4013  142.4889  166.2106 C.3     1  UNL1        0.1056
     15 O         140.4851  143.1567  166.4324 O.2     1  UNL1       -0.2748
     16 C         141.0261  141.9278  167.1011 C.2     1  UNL1        0.2254
     17 N         142.4842  141.5939  166.9902 N.am    1  UNL1       -0.3028
     18 H         142.8393  140.7873  167.4290 H       1  UNL1        0.1495
     19 C         140.1089  141.0328  167.8807 C.3     1  UNL1        0.0875
     20 C         139.1716  139.9786  168.3909 C.3     1  UNL1        0.0127
     21 C         138.8802  140.2756  169.8320 C.3     1  UNL1        0.0008
     22 C         139.6374  141.5133  170.2126 C.3     1  UNL1        0.0008
     23 C         140.3968  141.9813  169.0065 C.3     1  UNL1        0.0127
     24 C         140.0127  140.2714  166.5919 C.ar    1  UNL1       -0.0146
     25 C         138.8265  140.4634  165.6941 C.ar    1  UNL1       -0.0030
     26 C         138.7304  139.7020  164.4053 C.ar    1  UNL1        0.0111
     27 C         139.8205  138.7486  164.0142 C.ar    1  UNL1        0.0577
     28 CL        139.7243  137.9872  162.7254 Cl      1  UNL1       -0.0822
     29 C         141.0067  138.5566  164.9121 C.ar    1  UNL1        0.0111
     30 C         141.1028  139.3181  166.2009 C.ar    1  UNL1       -0.0030
     31 C         144.5887  141.6818  164.0452 C.3     1  UNL1        0.0440
     32 C         144.3160  140.6922  162.9514 C.ar    1  UNL1       -0.0208
     33 C         144.2565  141.1493  161.5240 C.ar    1  UNL1       -0.0042
     34 C         143.9838  140.1597  160.4303 C.ar    1  UNL1       -0.0003
     35 C         143.7707  138.7129  160.7640 C.ar    1  UNL1       -0.0000
     36 C         143.8302  138.2557  162.1913 C.ar    1  UNL1       -0.0003
     37 C         144.1029  139.2453  163.2850 C.ar    1  UNL1       -0.0042
@<TRIPOS>BOND
     1    15    16    2
     2    16    17   am
     3    17    14    1
     4     1    14    1
     5     1    31    1
     6    31    32    1
     7    32    33   ar
     8    33    34   ar
     9    34    35   ar
    10    35    36   ar
    11    36    37   ar
    12     1     2    1
    13     2     3    1
    14     3     4    1
    15     4     5    1
    16     5     6    1
    17     5    10    1
    18    10    11    1
    19    10    12    1
    20    10    13    1
    21     5     7    1
    22     7     8    1
    23    16    19    1
    24    19    24    1
    25    24    25   ar
    26    25    26   ar
    27    26    27   ar
    28    27    28    1
    29    27    29   ar
    30    29    30   ar
    31    19    20    1
    32    20    21    1
    33    21    22    1
    34    22    23    1
    35    37    32   ar
    36     8     2    1
    37    23    19    1
    38    30    24   ar
    39    17    18    1
    40     6     9    1
@<TRIPOS>MOLECULE
*****
 37 40 0 0 0
SMALL
GASTEIGER

@<TRIPOS>ATOM
      1 C         143.2259  140.6496  163.6019 C.3     1  UNL1        0.0815
      2 N         142.8756  141.5930  162.4896 N.3     1  UNL1       -0.2719
      3 C         143.9137  141.9775  161.4774 C.3     1  UNL1        0.0748
      4 C         143.5634  142.9209  160.3651 C.3     1  UNL1        0.0528
      5 C         142.1750  143.4797  160.2649 C.3     1  UNL1        0.1779
      6 O         142.8072  144.1377  159.0743 O.3     1  UNL1       -0.3786
      7 C         141.1368  143.0951  161.2770 C.3     1  UNL1        0.0528
      8 C         141.4871  142.1518  162.3894 C.3     1  UNL1        0.0748
      9 H         143.7350  143.8629  159.0077 H       1  UNL1        0.2106
     10 C         141.0061  144.2671  159.7512 C.3     1  UNL1        0.4194
     11 F         139.8373  145.0543  159.2375 F       1  UNL1       -0.1676
     12 F         141.3851  145.4117  160.6434 F       1  UNL1       -0.1676
     13 F         140.6272  143.1223  158.8589 F       1  UNL1       -0.1676
     14 C         143.7777  141.1821  164.8912 C.3     1  UNL1        0.1056
     15 O         142.4427  139.9948  167.3011 O.2     1  UNL1       -0.2748
     16 C         142.2554  141.4479  166.9796 C.2     1  UNL1        0.2254
     17 N         142.9229  142.0416  165.7746 N.am    1  UNL1       -0.3028
     18 H         142.7999  142.9953  165.5636 H       1  UNL1        0.1495
     19 C         141.4005  142.3074  167.8632 C.3     1  UNL1        0.0875
     20 C         140.3378  143.1429  168.5132 C.3     1  UNL1        0.0127
     21 C         140.8542  143.5940  169.8473 C.3     1  UNL1        0.0008
     22 C         142.2361  143.0373  170.0218 C.3     1  UNL1        0.0008
     23 C         142.5737  142.2421  168.7955 C.3     1  UNL1        0.0127
     24 C         140.4060  142.1930  166.7461 C.ar    1  UNL1       -0.0146
     25 C         139.7718  140.8688  166.4392 C.ar    1  UNL1       -0.0030
     26 C         138.7773  140.7544  165.3221 C.ar    1  UNL1        0.0111
     27 C         138.4170  141.9643  164.5118 C.ar    1  UNL1        0.0577
     28 CL        137.4225  141.8499  163.3948 Cl      1  UNL1       -0.0822
     29 C         139.0513  143.2886  164.8187 C.ar    1  UNL1        0.0111
     30 C         140.0458  143.4029  165.9359 C.ar    1  UNL1       -0.0030
     31 C         143.0245  139.1738  163.4251 C.3     1  UNL1        0.0440
     32 C         141.6464  138.5885  163.5177 C.ar    1  UNL1       -0.0208
     33 C         140.7209  138.6592  162.3394 C.ar    1  UNL1       -0.0042
     34 C         139.3429  138.0739  162.4320 C.ar    1  UNL1       -0.0003
     35 C         138.8905  137.4179  163.7029 C.ar    1  UNL1       -0.0000
     36 C         139.8161  137.3472  164.8811 C.ar    1  UNL1       -0.0003
     37 C         141.1940  137.9325  164.7885 C.ar    1  UNL1       -0.0042
@<TRIPOS>BOND
     1    15    16    2
     2    16    17   am
     3    17    14    1
     4     1    14    1
     5     1    31    1
     6    31    32    1
     7    32    33   ar
     8    33    34   ar
     9    34    35   ar
    10    35    36   ar
    11    36    37   ar
    12     1     2    1
    13     2     3    1
    14     3     4    1
    15     4     5    1
    16     5     6    1
    17     5    10    1
    18    10    11    1
    19    10    12    1
    20    10    13    1
    21     5     7    1
    22     7     8    1
    23    16    19    1
    24    19    24    1
    25    24    25   ar
    26    25    26   ar
    27    26    27   ar
    28    27    28    1
    29    27    29   ar
    30    29    30   ar
    31    19    20    1
    32    20    21    1
    33    21    22    1
    34    22    23    1
    35    37    32   ar
    36     8     2    1
    37    23    19    1
    38    30    24   ar
    39    17    18    1
    40     6     9    1
