@<TRIPOS>MOLECULE
*****
 21 23 0 0 0
SMALL
GASTEIGER

@<TRIPOS>ATOM
      1 C         141.6839  144.6170  163.4648 C.3     1  UNL1        0.0591
      2 C         143.1187  144.2536  163.2216 C.3     1  UNL1        0.0418
      3 C         143.6279  142.9007  163.6222 C.ar    1  UNL1       -0.0245
      4 C         145.0627  142.5372  163.3790 C.ar    1  UNL1       -0.0045
      5 C         145.5719  141.1843  163.7796 C.ar    1  UNL1       -0.0003
      6 C         144.6463  140.1950  164.4233 C.ar    1  UNL1       -0.0003
      7 C         143.2115  140.5584  164.6665 C.ar    1  UNL1       -0.0043
      8 C         142.7023  141.9113  164.2659 C.ar    1  UNL1       -0.0223
      9 C         141.2674  142.2748  164.5091 C.3     1  UNL1        0.0456
     10 C         140.7583  143.6277  164.1085 C.3     1  UNL1        0.0248
     11 C         140.3418  141.2855  165.1528 C.ar    1  UNL1       -0.0175
     12 C         139.4617  140.4183  164.3021 C.ar    1  UNL1       -0.0030
     13 C         138.5361  139.4290  164.9459 C.ar    1  UNL1        0.0119
     14 C         138.4906  139.3068  166.4402 C.ar    1  UNL1        0.0682
     15 CL        137.5649  138.3174  167.0840 Cl      1  UNL1       -0.0814
     16 C         139.3706  140.1739  167.2908 C.ar    1  UNL1        0.0679
     17 CL        139.3251  140.0517  168.7852 Cl      1  UNL1       -0.0814
     18 C         140.2963  141.1632  166.6471 C.ar    1  UNL1        0.0083
     19 C         140.0518  146.0864  162.0765 C.3     1  UNL1        0.0859
     20 N         141.1746  145.9700  163.0642 N.3     1  UNL1       -0.2971
     21 H         140.8643  146.4326  163.9186 H       1  UNL1        0.1233
@<TRIPOS>BOND
     1    19    20    1
     2     1    20    1
     3     1     2    1
     4     2     3    1
     5     3     4   ar
     6     4     5   ar
     7     5     6   ar
     8     6     7   ar
     9     7     8   ar
    10     8     9    1
    11     9    11    1
    12    11    12   ar
    13    12    13   ar
    14    13    14   ar
    15    14    15    1
    16    14    16   ar
    17    16    17    1
    18    16    18   ar
    19     9    10    1
    20    10     1    1
    21     8     3   ar
    22    18    11   ar
    23    20    21    1
@<TRIPOS>MOLECULE
*****
 21 23 0 0 0
SMALL
GASTEIGER

@<TRIPOS>ATOM
      1 C         141.5009  145.0191  163.3254 C.3     1  UNL1        0.0591
      2 C         142.7982  144.5590  162.7296 C.3     1  UNL1        0.0418
      3 C         143.4860  143.3437  163.2776 C.ar    1  UNL1       -0.0245
      4 C         144.7834  142.8835  162.6818 C.ar    1  UNL1       -0.0045
      5 C         145.4710  141.6683  163.2297 C.ar    1  UNL1       -0.0003
      6 C         144.8613  140.9132  164.3734 C.ar    1  UNL1       -0.0003
      7 C         143.5639  141.3734  164.9692 C.ar    1  UNL1       -0.0043
      8 C         142.8763  142.5886  164.4213 C.ar    1  UNL1       -0.0223
      9 C         141.5788  143.0488  165.0171 C.3     1  UNL1        0.0456
     10 C         140.8912  144.2640  164.4691 C.3     1  UNL1        0.0248
     11 C         140.9691  142.2937  166.1608 C.ar    1  UNL1       -0.0175
     12 C         141.2566  142.7105  167.5728 C.ar    1  UNL1       -0.0030
     13 C         140.6468  141.9554  168.7166 C.ar    1  UNL1        0.0119
     14 C         139.7497  140.7836  168.4482 C.ar    1  UNL1        0.0682
     15 CL        139.1400  140.0285  169.5920 Cl      1  UNL1       -0.0814
     16 C         139.4623  140.3668  167.0363 C.ar    1  UNL1        0.0679
     17 CL        138.5651  139.1950  166.7680 Cl      1  UNL1       -0.0814
     18 C         140.0720  141.1219  165.8926 C.ar    1  UNL1        0.0083
     19 C         139.7200  146.0835  161.7615 C.3     1  UNL1        0.0859
     20 N         140.8131  146.2344  162.7775 N.3     1  UNL1       -0.2971
     21 H         140.4092  146.7282  163.5734 H       1  UNL1        0.1233
@<TRIPOS>BOND
     1    19    20    1
     2     1    20    1
     3     1     2    1
     4     2     3    1
     5     3     4   ar
     6     4     5   ar
     7     5     6   ar
     8     6     7   ar
     9     7     8   ar
    10     8     9    1
    11     9    11    1
    12    11    12   ar
    13    12    13   ar
    14    13    14   ar
    15    14    15    1
    16    14    16   ar
    17    16    17    1
    18    16    18   ar
    19     9    10    1
    20    10     1    1
    21     8     3   ar
    22    18    11   ar
    23    20    21    1
@<TRIPOS>MOLECULE
*****
 21 23 0 0 0
SMALL
GASTEIGER

@<TRIPOS>ATOM
      1 C         143.7950  142.9668  164.6019 C.3     1  UNL1        0.0591
      2 C         143.0696  143.8638  163.6432 C.3     1  UNL1        0.0418
      3 C         141.6024  144.1210  163.8204 C.ar    1  UNL1       -0.0245
      4 C         140.8771  145.0180  162.8617 C.ar    1  UNL1       -0.0045
      5 C         139.4100  145.2751  163.0389 C.ar    1  UNL1       -0.0003
      6 C         138.6682  144.6352  164.1748 C.ar    1  UNL1       -0.0003
      7 C         139.3936  143.7381  165.1335 C.ar    1  UNL1       -0.0043
      8 C         140.8607  143.4810  164.9563 C.ar    1  UNL1       -0.0223
      9 C         141.5861  142.5839  165.9150 C.3     1  UNL1        0.0456
     10 C         143.0532  142.3268  165.7377 C.3     1  UNL1        0.0248
     11 C         140.8444  141.9439  167.0509 C.ar    1  UNL1       -0.0175
     12 C         140.2325  140.5855  166.8763 C.ar    1  UNL1       -0.0030
     13 C         139.4907  139.9456  168.0122 C.ar    1  UNL1        0.0119
     14 C         139.3609  140.6640  169.3226 C.ar    1  UNL1        0.0682
     15 CL        138.6191  140.0240  170.4585 Cl      1  UNL1       -0.0814
     16 C         139.9727  142.0223  169.4971 C.ar    1  UNL1        0.0679
     17 CL        139.8429  142.7408  170.8075 Cl      1  UNL1       -0.0814
     18 C         140.7145  142.6623  168.3612 C.ar    1  UNL1        0.0083
     19 C         145.7288  141.4307  163.7949 C.3     1  UNL1        0.0859
     20 N         145.2622  142.7096  164.4247 N.3     1  UNL1       -0.2971
     21 H         145.6273  143.4704  163.8517 H       1  UNL1        0.1233
@<TRIPOS>BOND
     1    19    20    1
     2     1    20    1
     3     1     2    1
     4     2     3    1
     5     3     4   ar
     6     4     5   ar
     7     5     6   ar
     8     6     7   ar
     9     7     8   ar
    10     8     9    1
    11     9    11    1
    12    11    12   ar
    13    12    13   ar
    14    13    14   ar
    15    14    15    1
    16    14    16   ar
    17    16    17    1
    18    16    18   ar
    19     9    10    1
    20    10     1    1
    21     8     3   ar
    22    18    11   ar
    23    20    21    1
@<TRIPOS>MOLECULE
*****
 21 23 0 0 0
SMALL
GASTEIGER

@<TRIPOS>ATOM
      1 C         139.9205  141.3029  169.2543 C.3     1  UNL1        0.0591
      2 C         139.1377  140.1252  168.7541 C.3     1  UNL1        0.0418
      3 C         139.1758  139.7626  167.2990 C.ar    1  UNL1       -0.0245
      4 C         138.3930  138.5849  166.7989 C.ar    1  UNL1       -0.0045
      5 C         138.4311  138.2223  165.3439 C.ar    1  UNL1       -0.0003
      6 C         139.2521  139.0374  164.3891 C.ar    1  UNL1       -0.0003
      7 C         140.0349  140.2151  164.8892 C.ar    1  UNL1       -0.0043
      8 C         139.9968  140.5777  166.3442 C.ar    1  UNL1       -0.0223
      9 C         140.7796  141.7554  166.8445 C.3     1  UNL1        0.0456
     10 C         140.7415  142.1180  168.2994 C.3     1  UNL1        0.0248
     11 C         141.6006  142.5705  165.8896 C.ar    1  UNL1       -0.0175
     12 C         143.0869  142.3783  165.8253 C.ar    1  UNL1       -0.0030
     13 C         143.9078  143.1934  164.8705 C.ar    1  UNL1        0.0119
     14 C         143.2425  144.2007  163.9800 C.ar    1  UNL1        0.0682
     15 CL        144.0634  145.0157  163.0252 Cl      1  UNL1       -0.0814
     16 C         141.7563  144.3927  164.0444 C.ar    1  UNL1        0.0679
     17 CL        141.0909  145.4000  163.1539 Cl      1  UNL1       -0.0814
     18 C         140.9353  143.5777  164.9992 C.ar    1  UNL1        0.0083
     19 C         141.1462  141.6591  171.5172 C.3     1  UNL1        0.0859
     20 N         139.8824  141.6656  170.7093 N.3     1  UNL1       -0.2971
     21 H         139.5005  142.6096  170.7676 H       1  UNL1        0.1233
@<TRIPOS>BOND
     1    19    20    1
     2     1    20    1
     3     1     2    1
     4     2     3    1
     5     3     4   ar
     6     4     5   ar
     7     5     6   ar
     8     6     7   ar
     9     7     8   ar
    10     8     9    1
    11     9    11    1
    12    11    12   ar
    13    12    13   ar
    14    13    14   ar
    15    14    15    1
    16    14    16   ar
    17    16    17    1
    18    16    18   ar
    19     9    10    1
    20    10     1    1
    21     8     3   ar
    22    18    11   ar
    23    20    21    1
@<TRIPOS>MOLECULE
*****
 21 23 0 0 0
SMALL
GASTEIGER

@<TRIPOS>ATOM
      1 C         139.2621  139.2490  166.2975 C.3     1  UNL1        0.0591
      2 C         138.9765  139.4767  167.7523 C.3     1  UNL1        0.0418
      3 C         139.5414  140.6794  168.4483 C.ar    1  UNL1       -0.0245
      4 C         139.2557  140.9071  169.9031 C.ar    1  UNL1       -0.0045
      5 C         139.8206  142.1097  170.5990 C.ar    1  UNL1       -0.0003
      6 C         140.6712  143.0847  169.8402 C.ar    1  UNL1       -0.0003
      7 C         140.9569  142.8571  168.3854 C.ar    1  UNL1       -0.0043
      8 C         140.3920  141.6544  167.6894 C.ar    1  UNL1       -0.0223
      9 C         140.6777  141.4267  166.2346 C.3     1  UNL1        0.0456
     10 C         140.1127  140.2240  165.5386 C.3     1  UNL1        0.0248
     11 C         141.5283  142.4017  165.4757 C.ar    1  UNL1       -0.0175
     12 C         143.0236  142.3080  165.5490 C.ar    1  UNL1       -0.0030
     13 C         143.8742  143.2830  164.7901 C.ar    1  UNL1        0.0119
     14 C         143.2294  144.3517  163.9580 C.ar    1  UNL1        0.0682
     15 CL        144.0800  145.3267  163.1991 Cl      1  UNL1       -0.0814
     16 C         141.7342  144.4453  163.8848 C.ar    1  UNL1        0.0679
     17 CL        141.0895  145.5140  163.0526 Cl      1  UNL1       -0.0814
     18 C         140.8836  143.4703  164.6436 C.ar    1  UNL1        0.0083
     19 C         138.9759  137.8231  164.1446 C.3     1  UNL1        0.0859
     20 N         138.6972  138.0463  165.6014 N.3     1  UNL1       -0.2971
     21 H         139.0485  137.2271  166.0973 H       1  UNL1        0.1233
@<TRIPOS>BOND
     1    19    20    1
     2     1    20    1
     3     1     2    1
     4     2     3    1
     5     3     4   ar
     6     4     5   ar
     7     5     6   ar
     8     6     7   ar
     9     7     8   ar
    10     8     9    1
    11     9    11    1
    12    11    12   ar
    13    12    13   ar
    14    13    14   ar
    15    14    15    1
    16    14    16   ar
    17    16    17    1
    18    16    18   ar
    19     9    10    1
    20    10     1    1
    21     8     3   ar
    22    18    11   ar
    23    20    21    1
@<TRIPOS>MOLECULE
*****
 21 23 0 0 0
SMALL
GASTEIGER

@<TRIPOS>ATOM
      1 C         139.1497  139.2715  166.3315 C.3     1  UNL1        0.0591
      2 C         138.8968  139.5067  167.7912 C.3     1  UNL1        0.0418
      3 C         139.4980  140.6995  168.4739 C.ar    1  UNL1       -0.0245
      4 C         139.2451  140.9347  169.9335 C.ar    1  UNL1       -0.0045
      5 C         139.8463  142.1274  170.6162 C.ar    1  UNL1       -0.0003
      6 C         140.7004  143.0849  169.8391 C.ar    1  UNL1       -0.0003
      7 C         140.9533  142.8497  168.3795 C.ar    1  UNL1       -0.0043
      8 C         140.3521  141.6570  167.6968 C.ar    1  UNL1       -0.0223
      9 C         140.6050  141.4217  166.2371 C.3     1  UNL1        0.0456
     10 C         140.0038  140.2290  165.5545 C.3     1  UNL1        0.0248
     11 C         141.4590  142.3792  165.4601 C.ar    1  UNL1       -0.0175
     12 C         140.8511  143.6165  164.8687 C.ar    1  UNL1       -0.0030
     13 C         141.7052  144.5740  164.0917 C.ar    1  UNL1        0.0119
     14 C         143.1672  144.2942  163.9060 C.ar    1  UNL1        0.0682
     15 CL        144.0212  145.2517  163.1290 Cl      1  UNL1       -0.0814
     16 C         143.7750  143.0570  164.4973 C.ar    1  UNL1        0.0679
     17 CL        145.2370  142.7771  164.3116 Cl      1  UNL1       -0.0814
     18 C         142.9209  142.0995  165.2743 C.ar    1  UNL1        0.0083
     19 C         138.8536  137.8080  164.2053 C.3     1  UNL1        0.0859
     20 N         138.5486  138.0788  165.6488 N.3     1  UNL1       -0.2971
     21 H         138.8496  137.2570  166.1726 H       1  UNL1        0.1233
@<TRIPOS>BOND
     1    19    20    1
     2     1    20    1
     3     1     2    1
     4     2     3    1
     5     3     4   ar
     6     4     5   ar
     7     5     6   ar
     8     6     7   ar
     9     7     8   ar
    10     8     9    1
    11     9    11    1
    12    11    12   ar
    13    12    13   ar
    14    13    14   ar
    15    14    15    1
    16    14    16   ar
    17    16    17    1
    18    16    18   ar
    19     9    10    1
    20    10     1    1
    21     8     3   ar
    22    18    11   ar
    23    20    21    1
@<TRIPOS>MOLECULE
*****
 21 23 0 0 0
SMALL
GASTEIGER

@<TRIPOS>ATOM
      1 C         138.4462  142.8579  164.1482 C.3     1  UNL1        0.0591
      2 C         138.0236  141.8566  163.1144 C.3     1  UNL1        0.0418
      3 C         138.3864  140.4104  163.2786 C.ar    1  UNL1       -0.0245
      4 C         137.9637  139.4091  162.2449 C.ar    1  UNL1       -0.0045
      5 C         138.3265  137.9629  162.4091 C.ar    1  UNL1       -0.0003
      6 C         139.1120  137.5181  163.6071 C.ar    1  UNL1       -0.0003
      7 C         139.5347  138.5194  164.6409 C.ar    1  UNL1       -0.0043
      8 C         139.1719  139.9655  164.4766 C.ar    1  UNL1       -0.0223
      9 C         139.5945  140.9669  165.5104 C.3     1  UNL1        0.0456
     10 C         139.2317  142.4131  165.3462 C.3     1  UNL1        0.0248
     11 C         140.3800  140.5221  166.7084 C.ar    1  UNL1       -0.0175
     12 C         141.8216  140.1355  166.5587 C.ar    1  UNL1       -0.0030
     13 C         142.6071  139.6907  167.7567 C.ar    1  UNL1        0.0119
     14 C         141.9509  139.6325  169.1044 C.ar    1  UNL1        0.0682
     15 CL        142.7364  139.1876  170.3024 Cl      1  UNL1       -0.0814
     16 C         140.5094  140.0191  169.2540 C.ar    1  UNL1        0.0679
     17 CL        139.8532  139.9609  170.6017 Cl      1  UNL1       -0.0814
     18 C         139.7239  140.4639  168.0560 C.ar    1  UNL1        0.0083
     19 C         138.6720  145.1019  162.8583 C.3     1  UNL1        0.0859
     20 N         138.0834  144.3041  163.9840 N.3     1  UNL1       -0.2971
     21 H         137.0701  144.3428  163.8740 H       1  UNL1        0.1233
@<TRIPOS>BOND
     1    19    20    1
     2     1    20    1
     3     1     2    1
     4     2     3    1
     5     3     4   ar
     6     4     5   ar
     7     5     6   ar
     8     6     7   ar
     9     7     8   ar
    10     8     9    1
    11     9    11    1
    12    11    12   ar
    13    12    13   ar
    14    13    14   ar
    15    14    15    1
    16    14    16   ar
    17    16    17    1
    18    16    18   ar
    19     9    10    1
    20    10     1    1
    21     8     3   ar
    22    18    11   ar
    23    20    21    1
@<TRIPOS>MOLECULE
*****
 21 23 0 0 0
SMALL
GASTEIGER

@<TRIPOS>ATOM
      1 C         139.3020  139.7471  167.8158 C.3     1  UNL1        0.0591
      2 C         139.4829  140.3011  169.1979 C.3     1  UNL1        0.0418
      3 C         140.7032  141.1083  169.5286 C.ar    1  UNL1       -0.0245
      4 C         140.8841  141.6623  170.9107 C.ar    1  UNL1       -0.0045
      5 C         142.1044  142.4695  171.2413 C.ar    1  UNL1       -0.0003
      6 C         143.1438  142.7226  170.1899 C.ar    1  UNL1       -0.0003
      7 C         142.9629  142.1686  168.8078 C.ar    1  UNL1       -0.0043
      8 C         141.7426  141.3614  168.4771 C.ar    1  UNL1       -0.0223
      9 C         141.5617  140.8074  167.0949 C.3     1  UNL1        0.0456
     10 C         140.3414  140.0002  166.7643 C.3     1  UNL1        0.0248
     11 C         142.6011  141.0605  166.0435 C.ar    1  UNL1       -0.0175
     12 C         143.4401  139.9278  165.5303 C.ar    1  UNL1       -0.0030
     13 C         144.4795  140.1810  164.4788 C.ar    1  UNL1        0.0119
     14 C         144.6799  141.5667  163.9405 C.ar    1  UNL1        0.0682
     15 CL        145.7193  141.8198  162.8890 Cl      1  UNL1       -0.0814
     16 C         143.8408  142.6992  164.4537 C.ar    1  UNL1        0.0679
     17 CL        144.0412  144.0849  163.9154 Cl      1  UNL1       -0.0814
     18 C         142.8014  142.4461  165.5051 C.ar    1  UNL1        0.0083
     19 C         138.0466  138.1112  166.2353 C.3     1  UNL1        0.0859
     20 N         138.0816  138.9400  167.4851 N.3     1  UNL1       -0.2971
     21 H         137.9303  138.3016  168.2661 H       1  UNL1        0.1233
@<TRIPOS>BOND
     1    19    20    1
     2     1    20    1
     3     1     2    1
     4     2     3    1
     5     3     4   ar
     6     4     5   ar
     7     5     6   ar
     8     6     7   ar
     9     7     8   ar
    10     8     9    1
    11     9    11    1
    12    11    12   ar
    13    12    13   ar
    14    13    14   ar
    15    14    15    1
    16    14    16   ar
    17    16    17    1
    18    16    18   ar
    19     9    10    1
    20    10     1    1
    21     8     3   ar
    22    18    11   ar
    23    20    21    1
@<TRIPOS>MOLECULE
*****
 21 23 0 0 0
SMALL
GASTEIGER

@<TRIPOS>ATOM
      1 C         140.3804  141.7686  168.6739 C.3     1  UNL1        0.0591
      2 C         139.8583  140.3786  168.4609 C.3     1  UNL1        0.0418
      3 C         139.3806  139.9568  167.1030 C.ar    1  UNL1       -0.0245
      4 C         138.8585  138.5668  166.8900 C.ar    1  UNL1       -0.0045
      5 C         138.3809  138.1450  165.5321 C.ar    1  UNL1       -0.0003
      6 C         138.4253  139.1131  164.3873 C.ar    1  UNL1       -0.0003
      7 C         138.9474  140.5031  164.6002 C.ar    1  UNL1       -0.0043
      8 C         139.4250  140.9249  165.9581 C.ar    1  UNL1       -0.0223
      9 C         139.9471  142.3149  166.1712 C.3     1  UNL1        0.0456
     10 C         140.4248  142.7367  167.5290 C.3     1  UNL1        0.0248
     11 C         139.9916  143.2830  165.0263 C.ar    1  UNL1       -0.0175
     12 C         138.7725  144.0821  164.6720 C.ar    1  UNL1       -0.0030
     13 C         138.8169  145.0502  163.5272 C.ar    1  UNL1        0.0119
     14 C         140.0804  145.2193  162.7365 C.ar    1  UNL1        0.0682
     15 CL        140.1248  146.1874  161.5916 Cl      1  UNL1       -0.0814
     16 C         141.2994  144.4203  163.0908 C.ar    1  UNL1        0.0679
     17 CL        142.5629  144.5894  162.3001 Cl      1  UNL1       -0.0814
     18 C         141.2550  143.4521  164.2357 C.ar    1  UNL1        0.0083
     19 C         142.0413  143.1034  170.1605 C.3     1  UNL1        0.0859
     20 N         140.8581  142.1905  170.0318 N.3     1  UNL1       -0.2971
     21 H         140.0745  142.6582  170.4875 H       1  UNL1        0.1233
@<TRIPOS>BOND
     1    19    20    1
     2     1    20    1
     3     1     2    1
     4     2     3    1
     5     3     4   ar
     6     4     5   ar
     7     5     6   ar
     8     6     7   ar
     9     7     8   ar
    10     8     9    1
    11     9    11    1
    12    11    12   ar
    13    12    13   ar
    14    13    14   ar
    15    14    15    1
    16    14    16   ar
    17    16    17    1
    18    16    18   ar
    19     9    10    1
    20    10     1    1
    21     8     3   ar
    22    18    11   ar
    23    20    21    1
