@<TRIPOS>MOLECULE
*****
 29 31 0 0 0
SMALL
GASTEIGER

@<TRIPOS>ATOM
      1 N         142.2917  137.6451  158.4302 N.3     1  UNL1       -0.2686
      2 C         143.0197  137.3065  159.6973 C.3     1  UNL1        0.0940
      3 C         142.4563  137.7289  161.0218 C.3     1  UNL1        0.1123
      4 N         141.1649  138.4899  161.0792 N.am    1  UNL1       -0.2611
      5 C         140.6016  138.9122  162.4036 C.2     1  UNL1        0.3078
      6 O         139.3102  139.6732  162.4611 O.2     1  UNL1       -0.2522
      7 N         141.3295  138.5736  163.6707 N.am    1  UNL1       -0.2681
      8 C         140.4370  138.8285  159.8121 C.3     1  UNL1        0.1123
      9 C         141.0003  138.4061  158.4877 C.3     1  UNL1        0.0940
     10 H         142.1771  138.0741  163.6330 H       1  UNL1        0.1564
     11 C         140.7661  138.9960  164.9952 C.ar    1  UNL1        0.0525
     12 C         141.5655  139.8848  165.9011 C.ar    1  UNL1        0.0156
     13 C         141.0022  140.3072  167.2256 C.ar    1  UNL1        0.0135
     14 C         139.6394  139.8408  167.6440 C.ar    1  UNL1        0.0683
     15 CL        139.0760  140.2632  168.9685 Cl      1  UNL1       -0.0814
     16 C         138.8399  138.9519  166.7380 C.ar    1  UNL1        0.0694
     17 CL        137.4771  138.4855  167.1565 Cl      1  UNL1       -0.0813
     18 C         139.4033  138.5295  165.4136 C.ar    1  UNL1        0.0270
     19 C         142.8551  137.2228  157.1058 C.3     1  UNL1        0.0895
     20 N         143.5057  133.3592  156.4736 N.3     1  UNL1       -0.2716
     21 C         142.2944  132.9960  155.6670 C.3     1  UNL1        0.0894
     22 C         141.2700  134.0417  155.3399 C.3     1  UNL1        0.0862
     23 N         141.4569  135.4506  155.8195 N.3     1  UNL1       -0.2951
     24 C         142.6682  135.8138  156.6262 C.3     1  UNL1        0.0864
     25 C         143.6926  134.7681  156.9532 C.3     1  UNL1        0.0894
     26 H         140.6433  135.6773  156.3915 H       1  UNL1        0.1233
     27 C         145.3228  132.4113  158.0704 C.3     1  UNL1        0.0173
     28 C         144.5302  132.3135  156.8007 C.3     1  UNL1        0.0577
     29 C         144.7620  131.1699  155.8581 C.3     1  UNL1        0.0173
@<TRIPOS>BOND
     1    27    28    1
     2    28    29    1
     3    28    20    1
     4    20    21    1
     5    21    22    1
     6    22    23    1
     7    23    24    1
     8    24    19    1
     9    19     1    1
    10     1     2    1
    11     2     3    1
    12     3     4    1
    13     4     5   am
    14     5     6    2
    15     5     7   am
    16     7    11    1
    17    11    12   ar
    18    12    13   ar
    19    13    14   ar
    20    14    15    1
    21    14    16   ar
    22    16    17    1
    23    16    18   ar
    24     4     8    1
    25     8     9    1
    26    24    25    1
    27    25    20    1
    28     9     1    1
    29    18    11   ar
    30    23    26    1
    31     7    10    1
@<TRIPOS>MOLECULE
*****
 29 31 0 0 0
SMALL
GASTEIGER

@<TRIPOS>ATOM
      1 N         140.6770  145.4202  155.8166 N.3     1  UNL1       -0.2686
      2 C         141.6034  145.9324  156.8793 C.3     1  UNL1        0.0940
      3 C         141.4093  145.5167  158.3075 C.3     1  UNL1        0.1123
      4 N         140.2889  144.5888  158.6728 N.am    1  UNL1       -0.2611
      5 C         140.0948  144.1731  160.1009 C.2     1  UNL1        0.3078
      6 O         138.9743  143.2452  160.4664 O.2     1  UNL1       -0.2522
      7 N         141.0213  144.6854  161.1637 N.am    1  UNL1       -0.2681
      8 C         139.3624  144.0766  157.6101 C.3     1  UNL1        0.1123
      9 C         139.5565  144.4923  156.1820 C.3     1  UNL1        0.0940
     10 H         141.7567  145.2944  160.9238 H       1  UNL1        0.1564
     11 C         140.8272  144.2697  162.5918 C.ar    1  UNL1        0.0525
     12 C         141.7197  143.2271  163.1974 C.ar    1  UNL1        0.0156
     13 C         141.5256  142.8114  164.6254 C.ar    1  UNL1        0.0135
     14 C         140.4391  143.4382  165.4480 C.ar    1  UNL1        0.0683
     15 CL        140.2451  143.0225  166.8762 Cl      1  UNL1       -0.0814
     16 C         139.5467  144.4807  164.8425 C.ar    1  UNL1        0.0694
     17 CL        138.4601  145.1075  165.6651 Cl      1  UNL1       -0.0813
     18 C         139.7407  144.8964  163.4144 C.ar    1  UNL1        0.0270
     19 C         140.8710  145.8359  154.3885 C.3     1  UNL1        0.0895
     20 N         139.4002  149.5210  154.4703 N.3     1  UNL1       -0.2716
     21 C         139.6808  149.9695  153.0668 C.3     1  UNL1        0.0894
     22 C         140.3582  149.0401  152.1037 C.3     1  UNL1        0.0862
     23 N         140.7549  147.6622  152.5443 N.3     1  UNL1       -0.2951
     24 C         140.4743  147.2138  153.9479 C.3     1  UNL1        0.0864
     25 C         139.7969  148.1432  154.9109 C.3     1  UNL1        0.0894
     26 H         141.7630  147.5882  152.4075 H       1  UNL1        0.1233
     27 C         138.2353  149.9358  156.7553 C.3     1  UNL1        0.0173
     28 C         138.7228  150.4504  155.4334 C.3     1  UNL1        0.0577
     29 C         138.5330  151.8944  155.0745 C.3     1  UNL1        0.0173
@<TRIPOS>BOND
     1    27    28    1
     2    28    29    1
     3    28    20    1
     4    20    21    1
     5    21    22    1
     6    22    23    1
     7    23    24    1
     8    24    19    1
     9    19     1    1
    10     1     2    1
    11     2     3    1
    12     3     4    1
    13     4     5   am
    14     5     6    2
    15     5     7   am
    16     7    11    1
    17    11    12   ar
    18    12    13   ar
    19    13    14   ar
    20    14    15    1
    21    14    16   ar
    22    16    17    1
    23    16    18   ar
    24     4     8    1
    25     8     9    1
    26    24    25    1
    27    25    20    1
    28     9     1    1
    29    18    11   ar
    30    23    26    1
    31     7    10    1
@<TRIPOS>MOLECULE
*****
 29 31 0 0 0
SMALL
GASTEIGER

@<TRIPOS>ATOM
      1 N         141.1437  145.0454  160.0070 N.3     1  UNL1       -0.2686
      2 C         141.8601  143.8563  160.5751 C.3     1  UNL1        0.0940
      3 C         141.5108  143.3541  161.9448 C.3     1  UNL1        0.1123
      4 N         140.4453  144.0411  162.7463 N.am    1  UNL1       -0.2611
      5 C         140.0961  143.5390  164.1159 C.2     1  UNL1        0.3078
      6 O         139.0305  144.2260  164.9176 O.2     1  UNL1       -0.2522
      7 N         140.8125  142.3498  164.6840 N.am    1  UNL1       -0.2681
      8 C         139.7289  145.2303  162.1783 C.3     1  UNL1        0.1123
      9 C         140.0781  145.7325  160.8087 C.3     1  UNL1        0.0940
     10 H         141.5119  141.8988  164.1578 H       1  UNL1        0.1564
     11 C         140.4633  141.8476  166.0536 C.ar    1  UNL1        0.0525
     12 C         139.8108  140.5069  166.2171 C.ar    1  UNL1        0.0156
     13 C         139.4616  140.0047  167.5867 C.ar    1  UNL1        0.0135
     14 C         139.7648  140.8433  168.7928 C.ar    1  UNL1        0.0683
     15 CL        139.4156  140.3411  170.1625 Cl      1  UNL1       -0.0814
     16 C         140.4173  142.1840  168.6294 C.ar    1  UNL1        0.0694
     17 CL        140.7205  143.0226  169.8356 Cl      1  UNL1       -0.0813
     18 C         140.7665  142.6862  167.2598 C.ar    1  UNL1        0.0270
     19 C         141.4929  145.5476  158.6374 C.3     1  UNL1        0.0895
     20 N         138.6768  144.3679  156.1021 N.3     1  UNL1       -0.2716
     21 C         138.3541  145.6615  155.4149 C.3     1  UNL1        0.0894
     22 C         139.0777  146.9172  155.8018 C.3     1  UNL1        0.0862
     23 N         140.1239  146.8793  156.8760 N.3     1  UNL1       -0.2951
     24 C         140.4466  145.5856  157.5632 C.3     1  UNL1        0.0864
     25 C         139.7230  144.3299  157.1763 C.3     1  UNL1        0.0894
     26 H         139.8252  147.5314  157.6012 H       1  UNL1        0.1233
     27 C         138.6462  141.7858  155.8164 C.3     1  UNL1        0.0173
     28 C         137.9532  143.1122  155.7151 C.3     1  UNL1        0.0577
     29 C         136.5367  143.1830  155.2269 C.3     1  UNL1        0.0173
@<TRIPOS>BOND
     1    27    28    1
     2    28    29    1
     3    28    20    1
     4    20    21    1
     5    21    22    1
     6    22    23    1
     7    23    24    1
     8    24    19    1
     9    19     1    1
    10     1     2    1
    11     2     3    1
    12     3     4    1
    13     4     5   am
    14     5     6    2
    15     5     7   am
    16     7    11    1
    17    11    12   ar
    18    12    13   ar
    19    13    14   ar
    20    14    15    1
    21    14    16   ar
    22    16    17    1
    23    16    18   ar
    24     4     8    1
    25     8     9    1
    26    24    25    1
    27    25    20    1
    28     9     1    1
    29    18    11   ar
    30    23    26    1
    31     7    10    1
@<TRIPOS>MOLECULE
*****
 29 31 0 0 0
SMALL
GASTEIGER

@<TRIPOS>ATOM
      1 N         142.3265  137.9905  158.9374 N.3     1  UNL1       -0.2686
      2 C         141.0508  138.6823  159.3166 C.3     1  UNL1        0.0940
      3 C         140.7101  138.8876  160.7629 C.3     1  UNL1        0.1123
      4 N         141.6453  138.4011  161.8301 N.am    1  UNL1       -0.2611
      5 C         141.3046  138.6064  163.2763 C.2     1  UNL1        0.3078
      6 O         142.2398  138.1199  164.3435 O.2     1  UNL1       -0.2522
      7 N         140.0288  139.2982  163.6555 N.am    1  UNL1       -0.2681
      8 C         142.9211  137.7093  161.4509 C.3     1  UNL1        0.1123
      9 C         143.2617  137.5040  160.0046 C.3     1  UNL1        0.0940
     10 H         139.4151  139.6175  162.9551 H       1  UNL1        0.1564
     11 C         139.6882  139.5035  165.1019 C.ar    1  UNL1        0.0525
     12 C         138.5533  138.7424  165.7204 C.ar    1  UNL1        0.0156
     13 C         138.2126  138.9476  167.1667 C.ar    1  UNL1        0.0135
     14 C         139.0069  139.9140  167.9944 C.ar    1  UNL1        0.0683
     15 CL        138.6663  140.1193  169.4408 Cl      1  UNL1       -0.0814
     16 C         140.1418  140.6751  167.3759 C.ar    1  UNL1        0.0694
     17 CL        140.9361  141.6416  168.2037 Cl      1  UNL1       -0.0813
     18 C         140.4825  140.4699  165.9296 C.ar    1  UNL1        0.0270
     19 C         142.6672  137.7852  157.4911 C.3     1  UNL1        0.0895
     20 N         142.7808  133.9215  156.5914 N.3     1  UNL1       -0.2716
     21 C         141.7536  133.8542  155.5004 C.3     1  UNL1        0.0894
     22 C         141.0309  135.0972  155.0730 C.3     1  UNL1        0.0862
     23 N         141.3354  136.4075  155.7366 N.3     1  UNL1       -0.2951
     24 C         142.3626  136.4748  156.8275 C.3     1  UNL1        0.0864
     25 C         143.0853  135.2318  157.2550 C.3     1  UNL1        0.0894
     26 H         140.4598  136.7462  156.1353 H       1  UNL1        0.1233
     27 C         144.7908  132.7842  157.7815 C.3     1  UNL1        0.0173
     28 C         143.5035  132.6786  157.0188 C.3     1  UNL1        0.0577
     29 C         142.9389  131.3299  156.6836 C.3     1  UNL1        0.0173
@<TRIPOS>BOND
     1    27    28    1
     2    28    29    1
     3    28    20    1
     4    20    21    1
     5    21    22    1
     6    22    23    1
     7    23    24    1
     8    24    19    1
     9    19     1    1
    10     1     2    1
    11     2     3    1
    12     3     4    1
    13     4     5   am
    14     5     6    2
    15     5     7   am
    16     7    11    1
    17    11    12   ar
    18    12    13   ar
    19    13    14   ar
    20    14    15    1
    21    14    16   ar
    22    16    17    1
    23    16    18   ar
    24     4     8    1
    25     8     9    1
    26    24    25    1
    27    25    20    1
    28     9     1    1
    29    18    11   ar
    30    23    26    1
    31     7    10    1
@<TRIPOS>MOLECULE
*****
 29 31 0 0 0
SMALL
GASTEIGER

@<TRIPOS>ATOM
      1 N         142.8227  142.2032  160.0520 N.3     1  UNL1       -0.2686
      2 C         143.9952  141.4181  159.5432 C.3     1  UNL1        0.0940
      3 C         143.7713  140.1640  158.7513 C.3     1  UNL1        0.1123
      4 N         142.3749  139.6950  158.4683 N.am    1  UNL1       -0.2611
      5 C         142.1510  138.4409  157.6764 C.2     1  UNL1        0.3078
      6 O         140.7546  137.9718  157.3934 O.2     1  UNL1       -0.2522
      7 N         143.3235  137.6558  157.1676 N.am    1  UNL1       -0.2681
      8 C         141.2024  140.4801  158.9771 C.3     1  UNL1        0.1123
      9 C         141.4263  141.7342  159.7689 C.3     1  UNL1        0.0940
     10 H         144.2400  137.9636  157.3534 H       1  UNL1        0.1564
     11 C         143.0996  136.4016  156.3757 C.ar    1  UNL1        0.0525
     12 C         142.8263  136.4832  154.9031 C.ar    1  UNL1        0.0156
     13 C         142.6024  135.2291  154.1112 C.ar    1  UNL1        0.0135
     14 C         142.6517  133.8935  154.7920 C.ar    1  UNL1        0.0683
     15 CL        142.4278  132.6393  154.0001 Cl      1  UNL1       -0.0814
     16 C         142.9250  133.8118  156.2646 C.ar    1  UNL1        0.0694
     17 CL        142.9743  132.4761  156.9454 Cl      1  UNL1       -0.0813
     18 C         143.1489  135.0659  157.0565 C.ar    1  UNL1        0.0270
     19 C         143.0466  143.4573  160.8438 C.3     1  UNL1        0.0895
     20 N         140.2449  144.5201  163.4460 N.3     1  UNL1       -0.2716
     21 C         139.5501  145.6101  162.6850 C.3     1  UNL1        0.0894
     22 C         140.0208  145.9825  161.3103 C.3     1  UNL1        0.0862
     23 N         141.1863  145.2650  160.6966 N.3     1  UNL1       -0.2951
     24 C         141.8811  144.1750  161.4575 C.3     1  UNL1        0.0864
     25 C         141.4104  143.8025  162.8322 C.3     1  UNL1        0.0894
     26 H         141.8904  145.9725  160.4868 H       1  UNL1        0.1233
     27 C         138.6011  144.8568  165.4295 C.3     1  UNL1        0.0173
     28 C         139.7743  144.1477  164.8207 C.3     1  UNL1        0.0577
     29 C         140.4769  143.0661  165.5866 C.3     1  UNL1        0.0173
@<TRIPOS>BOND
     1    27    28    1
     2    28    29    1
     3    28    20    1
     4    20    21    1
     5    21    22    1
     6    22    23    1
     7    23    24    1
     8    24    19    1
     9    19     1    1
    10     1     2    1
    11     2     3    1
    12     3     4    1
    13     4     5   am
    14     5     6    2
    15     5     7   am
    16     7    11    1
    17    11    12   ar
    18    12    13   ar
    19    13    14   ar
    20    14    15    1
    21    14    16   ar
    22    16    17    1
    23    16    18   ar
    24     4     8    1
    25     8     9    1
    26    24    25    1
    27    25    20    1
    28     9     1    1
    29    18    11   ar
    30    23    26    1
    31     7    10    1
@<TRIPOS>MOLECULE
*****
 29 31 0 0 0
SMALL
GASTEIGER

@<TRIPOS>ATOM
      1 N         141.6324  144.9655  159.1778 N.3     1  UNL1       -0.2686
      2 C         140.6395  145.3933  160.2176 C.3     1  UNL1        0.0940
      3 C         140.5104  144.6180  161.4952 C.3     1  UNL1        0.1123
      4 N         141.3741  143.4149  161.7330 N.am    1  UNL1       -0.2611
      5 C         141.2449  142.6396  163.0105 C.2     1  UNL1        0.3078
      6 O         142.1086  141.4364  163.2483 O.2     1  UNL1       -0.2522
      7 N         140.2520  143.0675  164.0503 N.am    1  UNL1       -0.2681
      8 C         142.3669  142.9870  160.6931 C.3     1  UNL1        0.1123
      9 C         142.4961  143.7623  159.4156 C.3     1  UNL1        0.0940
     10 H         139.6852  143.8571  163.8943 H       1  UNL1        0.1564
     11 C         140.1229  142.2921  165.3280 C.ar    1  UNL1        0.0525
     12 C         140.8034  142.7791  166.5728 C.ar    1  UNL1        0.0156
     13 C         140.6743  142.0039  167.8504 C.ar    1  UNL1        0.0135
     14 C         139.8647  140.7416  167.8831 C.ar    1  UNL1        0.0683
     15 CL        139.7355  139.9663  169.1608 Cl      1  UNL1       -0.0814
     16 C         139.1841  140.2546  166.6383 C.ar    1  UNL1        0.0694
     17 CL        138.3744  138.9923  166.6710 Cl      1  UNL1       -0.0813
     18 C         139.3132  141.0299  165.3607 C.ar    1  UNL1        0.0270
     19 C         141.7616  145.7407  157.9002 C.3     1  UNL1        0.0895
     20 N         138.6035  144.7801  155.6970 N.3     1  UNL1       -0.2716
     21 C         138.2342  146.1195  155.1317 C.3     1  UNL1        0.0894
     22 C         139.0407  147.3326  155.4892 C.3     1  UNL1        0.0862
     23 N         140.2165  147.2064  156.4120 N.3     1  UNL1       -0.2951
     24 C         140.5858  145.8670  156.9773 C.3     1  UNL1        0.0864
     25 C         139.7792  144.6539  156.6199 C.3     1  UNL1        0.0894
     26 H         140.0353  147.8212  157.2055 H       1  UNL1        0.1233
     27 C         137.5993  143.1952  153.8999 C.3     1  UNL1        0.0173
     28 C         137.7970  143.5669  155.3396 C.3     1  UNL1        0.0577
     29 C         137.1881  142.7255  156.4218 C.3     1  UNL1        0.0173
@<TRIPOS>BOND
     1    27    28    1
     2    28    29    1
     3    28    20    1
     4    20    21    1
     5    21    22    1
     6    22    23    1
     7    23    24    1
     8    24    19    1
     9    19     1    1
    10     1     2    1
    11     2     3    1
    12     3     4    1
    13     4     5   am
    14     5     6    2
    15     5     7   am
    16     7    11    1
    17    11    12   ar
    18    12    13   ar
    19    13    14   ar
    20    14    15    1
    21    14    16   ar
    22    16    17    1
    23    16    18   ar
    24     4     8    1
    25     8     9    1
    26    24    25    1
    27    25    20    1
    28     9     1    1
    29    18    11   ar
    30    23    26    1
    31     7    10    1
@<TRIPOS>MOLECULE
*****
 29 31 0 0 0
SMALL
GASTEIGER

@<TRIPOS>ATOM
      1 N         140.2893  145.3079  155.8281 N.3     1  UNL1       -0.2686
      2 C         141.4502  145.9308  156.5453 C.3     1  UNL1        0.0940
      3 C         141.8012  145.4842  157.9336 C.3     1  UNL1        0.1123
      4 N         140.9913  144.4148  158.6048 N.am    1  UNL1       -0.2611
      5 C         141.3424  143.9684  159.9931 C.2     1  UNL1        0.3078
      6 O         140.5325  142.8989  160.6643 O.2     1  UNL1       -0.2522
      7 N         142.5033  144.5913  160.7102 N.am    1  UNL1       -0.2681
      8 C         139.8304  143.7919  157.8876 C.3     1  UNL1        0.1123
      9 C         139.4794  144.2384  156.4993 C.3     1  UNL1        0.0940
     10 H         143.0348  145.2932  160.2697 H       1  UNL1        0.1564
     11 C         142.8543  144.1447  162.0986 C.ar    1  UNL1        0.0525
     12 C         141.9907  144.5479  163.2569 C.ar    1  UNL1        0.0156
     13 C         142.3417  144.1014  164.6452 C.ar    1  UNL1        0.0135
     14 C         143.5562  143.2517  164.8752 C.ar    1  UNL1        0.0683
     15 CL        143.9072  142.8052  166.2635 Cl      1  UNL1       -0.0814
     16 C         144.4197  142.8485  163.7168 C.ar    1  UNL1        0.0694
     17 CL        145.6343  141.9988  163.9469 Cl      1  UNL1       -0.0813
     18 C         144.0688  143.2950  162.3285 C.ar    1  UNL1        0.0270
     19 C         139.9382  145.7544  154.4398 C.3     1  UNL1        0.0895
     20 N         139.2777  149.6578  154.7166 N.3     1  UNL1       -0.2716
     21 C         139.8853  150.1399  153.4327 C.3     1  UNL1        0.0894
     22 C         140.5105  149.1601  152.4845 C.3     1  UNL1        0.0862
     23 N         140.5282  147.6983  152.8202 N.3     1  UNL1       -0.2951
     24 C         139.9206  147.2162  154.1041 C.3     1  UNL1        0.0864
     25 C         139.2954  148.1960  155.0523 C.3     1  UNL1        0.0894
     26 H         141.5067  147.4105  152.8312 H       1  UNL1        0.1233
     27 C         138.2642  150.2011  157.0463 C.3     1  UNL1        0.0173
     28 C         138.6525  150.6376  155.6648 C.3     1  UNL1        0.0577
     29 C         138.4156  152.0540  155.2315 C.3     1  UNL1        0.0173
@<TRIPOS>BOND
     1    27    28    1
     2    28    29    1
     3    28    20    1
     4    20    21    1
     5    21    22    1
     6    22    23    1
     7    23    24    1
     8    24    19    1
     9    19     1    1
    10     1     2    1
    11     2     3    1
    12     3     4    1
    13     4     5   am
    14     5     6    2
    15     5     7   am
    16     7    11    1
    17    11    12   ar
    18    12    13   ar
    19    13    14   ar
    20    14    15    1
    21    14    16   ar
    22    16    17    1
    23    16    18   ar
    24     4     8    1
    25     8     9    1
    26    24    25    1
    27    25    20    1
    28     9     1    1
    29    18    11   ar
    30    23    26    1
    31     7    10    1
@<TRIPOS>MOLECULE
*****
 29 31 0 0 0
SMALL
GASTEIGER

@<TRIPOS>ATOM
      1 N         141.8753  136.8383  156.6269 N.3     1  UNL1       -0.2686
      2 C         140.4942  137.4237  156.6274 C.3     1  UNL1        0.0940
      3 C         140.0592  138.3183  157.7501 C.3     1  UNL1        0.1123
      4 N         141.0052  138.6276  158.8723 N.am    1  UNL1       -0.2611
      5 C         140.5702  139.5222  159.9949 C.2     1  UNL1        0.3078
      6 O         141.5162  139.8315  161.1172 O.2     1  UNL1       -0.2522
      7 N         139.1891  140.1076  159.9954 N.am    1  UNL1       -0.2681
      8 C         142.3863  138.0422  158.8718 C.3     1  UNL1        0.1123
      9 C         142.8213  137.1476  157.7492 C.3     1  UNL1        0.0940
     10 H         138.5682  139.9046  159.2588 H       1  UNL1        0.1564
     11 C         138.7541  141.0022  161.1181 C.ar    1  UNL1        0.0525
     12 C         137.8971  140.4575  162.2221 C.ar    1  UNL1        0.0156
     13 C         137.4621  141.3521  163.3448 C.ar    1  UNL1        0.0135
     14 C         137.8840  142.7914  163.3634 C.ar    1  UNL1        0.0683
     15 CL        137.4490  143.6861  164.4861 Cl      1  UNL1       -0.0814
     16 C         138.7410  143.3361  162.2594 C.ar    1  UNL1        0.0694
     17 CL        139.1629  144.7755  162.2780 Cl      1  UNL1       -0.0813
     18 C         139.1760  142.4415  161.1367 C.ar    1  UNL1        0.0270
     19 C         142.3103  135.9437  155.5043 C.3     1  UNL1        0.0895
     20 N         143.3420  132.2995  156.6900 N.3     1  UNL1       -0.2716
     21 C         142.2686  131.4761  156.0421 C.3     1  UNL1        0.0894
     22 C         141.2091  132.1419  155.2149 C.3     1  UNL1        0.0862
     23 N         141.2230  133.6311  155.0356 N.3     1  UNL1       -0.2951
     24 C         142.2964  134.4544  155.6835 C.3     1  UNL1        0.0864
     25 C         143.3559  133.7887  156.5107 C.3     1  UNL1        0.0894
     26 H         140.3316  133.9785  155.3892 H       1  UNL1        0.1233
     27 C         144.3613  130.1502  157.7345 C.3     1  UNL1        0.0173
     28 C         144.4015  131.6337  157.5172 C.3     1  UNL1        0.0577
     29 C         145.5011  132.4516  158.1270 C.3     1  UNL1        0.0173
@<TRIPOS>BOND
     1    27    28    1
     2    28    29    1
     3    28    20    1
     4    20    21    1
     5    21    22    1
     6    22    23    1
     7    23    24    1
     8    24    19    1
     9    19     1    1
    10     1     2    1
    11     2     3    1
    12     3     4    1
    13     4     5   am
    14     5     6    2
    15     5     7   am
    16     7    11    1
    17    11    12   ar
    18    12    13   ar
    19    13    14   ar
    20    14    15    1
    21    14    16   ar
    22    16    17    1
    23    16    18   ar
    24     4     8    1
    25     8     9    1
    26    24    25    1
    27    25    20    1
    28     9     1    1
    29    18    11   ar
    30    23    26    1
    31     7    10    1
@<TRIPOS>MOLECULE
*****
 29 31 0 0 0
SMALL
GASTEIGER

@<TRIPOS>ATOM
      1 N         142.0944  141.1095  159.2509 N.3     1  UNL1       -0.2686
      2 C         141.1856  139.9173  159.3018 C.3     1  UNL1        0.0940
      3 C         141.4999  138.6992  158.4847 C.3     1  UNL1        0.1123
      4 N         142.7230  138.6734  157.6168 N.am    1  UNL1       -0.2611
      5 C         143.0373  137.4553  156.7998 C.2     1  UNL1        0.3078
      6 O         144.2604  137.4294  155.9318 O.2     1  UNL1       -0.2522
      7 N         142.1284  136.2631  156.8507 N.am    1  UNL1       -0.2681
      8 C         143.6319  139.8656  157.5659 C.3     1  UNL1        0.1123
      9 C         143.3176  141.0837  158.3829 C.3     1  UNL1        0.0940
     10 H         141.3256  136.2801  157.4203 H       1  UNL1        0.1564
     11 C         142.4427  135.0450  156.0336 C.ar    1  UNL1        0.0525
     12 C         141.7219  134.8027  154.7407 C.ar    1  UNL1        0.0156
     13 C         142.0362  133.5847  153.9236 C.ar    1  UNL1        0.0135
     14 C         143.0712  132.6090  154.3995 C.ar    1  UNL1        0.0683
     15 CL        143.3856  131.3909  153.5825 Cl      1  UNL1       -0.0814
     16 C         143.7921  132.8513  155.6925 C.ar    1  UNL1        0.0694
     17 CL        144.8272  131.8754  156.1684 Cl      1  UNL1       -0.0813
     18 C         143.4778  134.0693  156.5095 C.ar    1  UNL1        0.0270
     19 C         141.7802  142.3276  160.0679 C.3     1  UNL1        0.0895
     20 N         143.6849  141.8715  163.5196 N.3     1  UNL1       -0.2716
     21 C         144.2063  143.2603  163.7413 C.3     1  UNL1        0.0894
     22 C         143.9190  144.3383  162.7385 C.3     1  UNL1        0.0862
     23 N         143.1103  144.0274  161.5141 N.3     1  UNL1       -0.2951
     24 C         142.5889  142.6385  161.2924 C.3     1  UNL1        0.0864
     25 C         142.8762  141.5606  162.2951 C.3     1  UNL1        0.0894
     26 H         143.6949  144.2543  160.7096 H       1  UNL1        0.1233
     27 C         143.1711  140.7137  165.7879 C.3     1  UNL1        0.0173
     28 C         143.9722  140.7935  164.5223 C.3     1  UNL1        0.0577
     29 C         145.0605  139.7954  164.2594 C.3     1  UNL1        0.0173
@<TRIPOS>BOND
     1    27    28    1
     2    28    29    1
     3    28    20    1
     4    20    21    1
     5    21    22    1
     6    22    23    1
     7    23    24    1
     8    24    19    1
     9    19     1    1
    10     1     2    1
    11     2     3    1
    12     3     4    1
    13     4     5   am
    14     5     6    2
    15     5     7   am
    16     7    11    1
    17    11    12   ar
    18    12    13   ar
    19    13    14   ar
    20    14    15    1
    21    14    16   ar
    22    16    17    1
    23    16    18   ar
    24     4     8    1
    25     8     9    1
    26    24    25    1
    27    25    20    1
    28     9     1    1
    29    18    11   ar
    30    23    26    1
    31     7    10    1
