@<TRIPOS>MOLECULE
*****
 30 32 0 0 0
SMALL
GASTEIGER

@<TRIPOS>ATOM
      1 C         141.6722  142.9231  161.6737 C.ar    1  UNL1        0.1980
      2 C         142.1767  142.9666  163.0857 C.ar    1  UNL1        0.0494
      3 C         141.1012  142.4233  163.9790 C.ar    1  UNL1        0.0871
      4 C         139.9320  142.0440  163.1193 C.ar    1  UNL1        0.1310
      5 O         140.2849  142.3529  161.6945 O.2     1  UNL1       -0.4527
      6 C         144.1424  142.8888  158.5677 C.3     1  UNL1        0.1110
      7 N         143.3915  142.4407  159.7865 N.am    1  UNL1       -0.2967
      8 C         142.4231  143.3711  160.4549 C.2     1  UNL1        0.2806
      9 O         142.2057  144.7494  159.9046 O.2     1  UNL1       -0.2668
     10 H         143.5342  141.5361  160.1477 H       1  UNL1        0.1499
     11 C         141.1809  142.2837  165.4705 C.2     1  UNL1        0.2486
     12 O         140.4024  143.2134  166.3534 O.2     1  UNL1       -0.2700
     13 N         142.0392  141.2146  166.0789 N.am    1  UNL1       -0.3024
     14 H         142.5501  140.6044  165.4994 H       1  UNL1        0.1497
     15 C         142.1189  141.0750  167.5703 C.3     1  UNL1        0.0720
     16 C         143.0454  141.9537  168.3573 C.3     1  UNL1        0.0221
     17 C         143.1251  141.8142  169.8487 C.3     1  UNL1        0.0309
     18 C         142.2783  140.7959  170.5530 C.3     1  UNL1        0.1106
     19 O         142.3580  140.6564  172.0444 O.3     1  UNL1       -0.3845
     20 C         141.3517  139.9173  169.7660 C.3     1  UNL1        0.0309
     21 C         141.2720  140.0568  168.2747 C.3     1  UNL1        0.0221
     22 H         142.9994  141.2941  172.3950 H       1  UNL1        0.2103
     23 C         138.6374  141.4587  163.6000 C.3     1  UNL1        0.0798
     24 C         137.3593  142.2259  163.4325 C.3     1  UNL1        0.0127
     25 C         138.6206  140.1060  164.2481 C.ar    1  UNL1       -0.0153
     26 C         138.1987  139.9661  165.6807 C.ar    1  UNL1       -0.0039
     27 C         138.1820  138.6135  166.3290 C.ar    1  UNL1       -0.0003
     28 C         138.5871  137.4008  165.5446 C.ar    1  UNL1       -0.0000
     29 C         139.0090  137.5407  164.1120 C.ar    1  UNL1       -0.0003
     30 C         139.0258  138.8933  163.4637 C.ar    1  UNL1       -0.0039
@<TRIPOS>BOND
     1     6     7    1
     2     7     8   am
     3     8     9    2
     4     8     1    1
     5     1     2   ar
     6     2     3   ar
     7     3    11    1
     8    11    12    2
     9    11    13   am
    10    15    13    1
    11    15    16    1
    12    16    17    1
    13    17    18    1
    14    18    19    1
    15    18    20    1
    16    20    21    1
    17     3     4   ar
    18     4    23    1
    19    23    24    1
    20    23    25    1
    21    25    26   ar
    22    26    27   ar
    23    27    28   ar
    24    28    29   ar
    25    29    30   ar
    26     4     5   ar
    27     5     1   ar
    28    21    15    1
    29    30    25   ar
    30     7    10    1
    31    13    14    1
    32    19    22    1
@<TRIPOS>MOLECULE
*****
 30 32 0 0 0
SMALL
GASTEIGER

@<TRIPOS>ATOM
      1 C         142.7163  139.7695  161.9946 C.ar    1  UNL1        0.1980
      2 C         142.7023  139.6290  163.4881 C.ar    1  UNL1        0.0494
      3 C         142.3021  140.9505  164.0741 C.ar    1  UNL1        0.0871
      4 C         142.0688  141.9077  162.9431 C.ar    1  UNL1        0.1310
      5 O         142.3248  141.1778  161.6579 O.2     1  UNL1       -0.4527
      6 C         142.7300  137.5742  158.6886 C.3     1  UNL1        0.1110
      7 N         142.3851  138.6526  159.6724 N.am    1  UNL1       -0.2967
      8 C         143.0612  138.6910  161.0108 C.2     1  UNL1        0.2806
      9 O         144.0823  137.6510  161.3654 O.2     1  UNL1       -0.2668
     10 H         141.7149  139.3352  159.4397 H       1  UNL1        0.1499
     11 C         142.1602  141.2604  165.5350 C.2     1  UNL1        0.2486
     12 O         143.3173  141.8379  166.2950 O.2     1  UNL1       -0.2700
     13 N         140.8613  140.9927  166.2357 N.am    1  UNL1       -0.3024
     14 H         140.1019  140.6136  165.7369 H       1  UNL1        0.1497
     15 C         140.7194  141.3025  167.6965 C.3     1  UNL1        0.0720
     16 C         140.6350  142.7279  168.1561 C.3     1  UNL1        0.0221
     17 C         140.4931  143.0376  169.6169 C.3     1  UNL1        0.0309
     18 C         140.4356  141.9221  170.6180 C.3     1  UNL1        0.1106
     19 O         140.2937  142.2320  172.0789 O.3     1  UNL1       -0.3845
     20 C         140.5200  140.4968  170.1584 C.3     1  UNL1        0.0309
     21 C         140.6619  140.1870  168.6977 C.3     1  UNL1        0.0221
     22 H         140.2537  143.1931  172.2031 H       1  UNL1        0.2103
     23 C         141.6526  143.3428  163.0743 C.3     1  UNL1        0.0798
     24 C         142.6051  144.4377  162.6948 C.3     1  UNL1        0.0127
     25 C         140.2838  143.6831  163.5849 C.ar    1  UNL1       -0.0153
     26 C         139.0706  143.3033  162.7888 C.ar    1  UNL1       -0.0039
     27 C         137.7018  143.6435  163.2994 C.ar    1  UNL1       -0.0003
     28 C         137.5462  144.3635  164.6060 C.ar    1  UNL1       -0.0000
     29 C         138.7595  144.7433  165.4021 C.ar    1  UNL1       -0.0003
     30 C         140.1283  144.4031  164.8916 C.ar    1  UNL1       -0.0039
@<TRIPOS>BOND
     1     6     7    1
     2     7     8   am
     3     8     9    2
     4     8     1    1
     5     1     2   ar
     6     2     3   ar
     7     3    11    1
     8    11    12    2
     9    11    13   am
    10    15    13    1
    11    15    16    1
    12    16    17    1
    13    17    18    1
    14    18    19    1
    15    18    20    1
    16    20    21    1
    17     3     4   ar
    18     4    23    1
    19    23    24    1
    20    23    25    1
    21    25    26   ar
    22    26    27   ar
    23    27    28   ar
    24    28    29   ar
    25    29    30   ar
    26     4     5   ar
    27     5     1   ar
    28    21    15    1
    29    30    25   ar
    30     7    10    1
    31    13    14    1
    32    19    22    1
@<TRIPOS>MOLECULE
*****
 30 32 0 0 0
SMALL
GASTEIGER

@<TRIPOS>ATOM
      1 C         141.0321  144.0634  161.8656 C.ar    1  UNL1        0.1980
      2 C         140.8247  144.0887  163.3511 C.ar    1  UNL1        0.0494
      3 C         141.5752  142.9329  163.9436 C.ar    1  UNL1        0.0871
      4 C         142.2464  142.1934  162.8245 C.ar    1  UNL1        0.1310
      5 O         141.9108  142.8920  161.5402 O.2     1  UNL1       -0.4527
      6 C         140.2707  145.9241  158.4440 C.3     1  UNL1        0.1110
      7 N         140.8417  144.9492  159.4307 N.am    1  UNL1       -0.2967
      8 C         140.4612  145.0382  160.8789 C.2     1  UNL1        0.2806
      9 O         139.5097  146.1021  161.3404 O.2     1  UNL1       -0.2668
     10 H         141.4661  144.2510  159.1278 H       1  UNL1        0.1499
     11 C         141.6425  142.5790  165.3997 C.2     1  UNL1        0.2486
     12 O         142.9569  142.6191  166.1213 O.2     1  UNL1       -0.2700
     13 N         140.3954  142.1849  166.1342 N.am    1  UNL1       -0.3024
     14 H         139.5327  142.1586  165.6606 H       1  UNL1        0.1497
     15 C         140.4628  141.8310  167.5904 C.3     1  UNL1        0.0720
     16 C         140.4588  142.9153  168.6268 C.3     1  UNL1        0.0221
     17 C         140.5262  142.5613  170.0828 C.3     1  UNL1        0.0309
     18 C         140.5975  141.1230  170.5025 C.3     1  UNL1        0.1106
     19 O         140.6648  140.7690  171.9586 O.3     1  UNL1       -0.3845
     20 C         140.6014  140.0387  169.4661 C.3     1  UNL1        0.0309
     21 C         140.5341  140.3927  168.0100 C.3     1  UNL1        0.0221
     22 H         140.6528  141.5807  172.4895 H       1  UNL1        0.2103
     23 C         143.1029  140.9700  162.9650 C.3     1  UNL1        0.0798
     24 C         144.5754  141.0497  162.6904 C.3     1  UNL1        0.0127
     25 C         142.4869  139.6668  163.3802 C.ar    1  UNL1       -0.0153
     26 C         142.6148  139.1950  164.7983 C.ar    1  UNL1       -0.0039
     27 C         141.9988  137.8919  165.2136 C.ar    1  UNL1       -0.0003
     28 C         141.2549  137.0606  164.2108 C.ar    1  UNL1       -0.0000
     29 C         141.1270  137.5325  162.7927 C.ar    1  UNL1       -0.0003
     30 C         141.7430  138.8356  162.3774 C.ar    1  UNL1       -0.0039
@<TRIPOS>BOND
     1     6     7    1
     2     7     8   am
     3     8     9    2
     4     8     1    1
     5     1     2   ar
     6     2     3   ar
     7     3    11    1
     8    11    12    2
     9    11    13   am
    10    15    13    1
    11    15    16    1
    12    16    17    1
    13    17    18    1
    14    18    19    1
    15    18    20    1
    16    20    21    1
    17     3     4   ar
    18     4    23    1
    19    23    24    1
    20    23    25    1
    21    25    26   ar
    22    26    27   ar
    23    27    28   ar
    24    28    29   ar
    25    29    30   ar
    26     4     5   ar
    27     5     1   ar
    28    21    15    1
    29    30    25   ar
    30     7    10    1
    31    13    14    1
    32    19    22    1
@<TRIPOS>MOLECULE
*****
 30 32 0 0 0
SMALL
GASTEIGER

@<TRIPOS>ATOM
      1 C         143.7514  141.8210  159.9722 C.ar    1  UNL1        0.1980
      2 C         143.0842  140.7870  160.8300 C.ar    1  UNL1        0.0494
      3 C         142.4903  141.4836  162.0183 C.ar    1  UNL1        0.0871
      4 C         142.7905  142.9481  161.8949 C.ar    1  UNL1        0.1310
      5 O         143.5699  143.1566  160.6304 O.2     1  UNL1       -0.4527
      6 C         145.9559  142.4154  156.7261 C.3     1  UNL1        0.1110
      7 N         145.2339  142.6720  158.0156 N.am    1  UNL1       -0.2967
      8 C         144.4734  141.5644  158.6826 C.2     1  UNL1        0.2806
      9 O         144.4348  140.2002  158.0601 O.2     1  UNL1       -0.2668
     10 H         145.2592  143.5673  158.4242 H       1  UNL1        0.1499
     11 C         141.7298  140.8304  163.1341 C.2     1  UNL1        0.2486
     12 O         142.3219  140.7709  164.5110 O.2     1  UNL1       -0.2700
     13 N         140.3774  140.2366  162.8729 N.am    1  UNL1       -0.3024
     14 H         139.9888  140.2757  161.9692 H       1  UNL1        0.1497
     15 C         139.6168  139.5834  163.9887 C.3     1  UNL1        0.0720
     16 C         138.8324  140.4223  164.9535 C.3     1  UNL1        0.0221
     17 C         138.0720  139.7690  166.0692 C.3     1  UNL1        0.0309
     18 C         138.0959  138.2768  166.2202 C.3     1  UNL1        0.1106
     19 O         137.3354  137.6235  167.3360 O.3     1  UNL1       -0.3845
     20 C         138.8803  137.4379  165.2554 C.3     1  UNL1        0.0309
     21 C         139.6408  138.0912  164.1397 C.3     1  UNL1        0.0221
     22 H         136.8869  138.3033  167.8629 H       1  UNL1        0.2103
     23 C         142.3828  144.0164  162.8657 C.3     1  UNL1        0.0798
     24 C         143.3924  145.0141  163.3507 C.3     1  UNL1        0.0127
     25 C         140.9654  144.0871  163.3515 C.ar    1  UNL1       -0.0153
     26 C         140.6686  143.9741  164.8175 C.ar    1  UNL1       -0.0039
     27 C         139.2512  144.0448  165.3034 C.ar    1  UNL1       -0.0003
     28 C         138.1307  144.2284  164.3234 C.ar    1  UNL1       -0.0000
     29 C         138.4274  144.3414  162.8574 C.ar    1  UNL1       -0.0003
     30 C         139.8448  144.2708  162.3715 C.ar    1  UNL1       -0.0039
@<TRIPOS>BOND
     1     6     7    1
     2     7     8   am
     3     8     9    2
     4     8     1    1
     5     1     2   ar
     6     2     3   ar
     7     3    11    1
     8    11    12    2
     9    11    13   am
    10    15    13    1
    11    15    16    1
    12    16    17    1
    13    17    18    1
    14    18    19    1
    15    18    20    1
    16    20    21    1
    17     3     4   ar
    18     4    23    1
    19    23    24    1
    20    23    25    1
    21    25    26   ar
    22    26    27   ar
    23    27    28   ar
    24    28    29   ar
    25    29    30   ar
    26     4     5   ar
    27     5     1   ar
    28    21    15    1
    29    30    25   ar
    30     7    10    1
    31    13    14    1
    32    19    22    1
@<TRIPOS>MOLECULE
*****
 30 32 0 0 0
SMALL
GASTEIGER

@<TRIPOS>ATOM
      1 C         142.4318  140.0406  161.2175 C.ar    1  UNL1        0.1980
      2 C         142.3431  139.5533  162.6335 C.ar    1  UNL1        0.0494
      3 C         142.0242  140.7288  163.5090 C.ar    1  UNL1        0.0871
      4 C         141.9157  141.9425  162.6343 C.ar    1  UNL1        0.1310
      5 O         142.1677  141.5172  161.2181 O.2     1  UNL1       -0.4527
      6 C         141.9119  137.8544  157.9464 C.3     1  UNL1        0.1110
      7 N         141.6117  138.6959  159.1513 N.am    1  UNL1       -0.2967
      8 C         142.7320  139.1991  160.0127 C.2     1  UNL1        0.2806
      9 O         144.1523  138.8607  159.6692 O.2     1  UNL1       -0.2668
     10 H         140.6795  138.9180  159.3768 H       1  UNL1        0.1499
     11 C         141.8451  140.6961  164.9980 C.2     1  UNL1        0.2486
     12 O         140.4711  140.5650  165.5854 O.2     1  UNL1       -0.2700
     13 N         143.0399  140.7947  165.8994 N.am    1  UNL1       -0.3024
     14 H         143.9417  140.8807  165.5139 H       1  UNL1        0.1497
     15 C         142.8608  140.7620  167.3884 C.3     1  UNL1        0.0720
     16 C         142.9156  142.0359  168.1785 C.3     1  UNL1        0.0221
     17 C         142.7365  142.0032  169.6673 C.3     1  UNL1        0.0309
     18 C         142.5027  140.6967  170.3662 C.3     1  UNL1        0.1106
     19 O         142.3236  140.6641  171.8551 O.3     1  UNL1       -0.3845
     20 C         142.4479  139.4229  169.5761 C.3     1  UNL1        0.0309
     21 C         142.6270  139.4555  168.0872 C.3     1  UNL1        0.0221
     22 H         142.3866  141.5654  172.2082 H       1  UNL1        0.2103
     23 C         141.6092  143.3366  163.0950 C.3     1  UNL1        0.0798
     24 C         142.6715  144.3943  163.0432 C.3     1  UNL1        0.0127
     25 C         140.2401  143.6732  163.6074 C.ar    1  UNL1       -0.0153
     26 C         139.0261  143.2684  162.8251 C.ar    1  UNL1       -0.0039
     27 C         137.6570  143.6049  163.3374 C.ar    1  UNL1       -0.0003
     28 C         137.5021  144.3463  164.6322 C.ar    1  UNL1       -0.0000
     29 C         138.7161  144.7511  165.4145 C.ar    1  UNL1       -0.0003
     30 C         140.0852  144.4146  164.9022 C.ar    1  UNL1       -0.0039
@<TRIPOS>BOND
     1     6     7    1
     2     7     8   am
     3     8     9    2
     4     8     1    1
     5     1     2   ar
     6     2     3   ar
     7     3    11    1
     8    11    12    2
     9    11    13   am
    10    15    13    1
    11    15    16    1
    12    16    17    1
    13    17    18    1
    14    18    19    1
    15    18    20    1
    16    20    21    1
    17     3     4   ar
    18     4    23    1
    19    23    24    1
    20    23    25    1
    21    25    26   ar
    22    26    27   ar
    23    27    28   ar
    24    28    29   ar
    25    29    30   ar
    26     4     5   ar
    27     5     1   ar
    28    21    15    1
    29    30    25   ar
    30     7    10    1
    31    13    14    1
    32    19    22    1
@<TRIPOS>MOLECULE
*****
 30 32 0 0 0
SMALL
GASTEIGER

@<TRIPOS>ATOM
      1 C         141.8711  140.6426  168.2154 C.ar    1  UNL1        0.1980
      2 C         142.5407  140.0507  167.0106 C.ar    1  UNL1        0.0494
      3 C         141.4710  139.5743  166.0731 C.ar    1  UNL1        0.0871
      4 C         140.1404  139.8717  166.6984 C.ar    1  UNL1        0.1310
      5 O         140.3877  140.5319  168.0224 O.2     1  UNL1       -0.4527
      6 C         143.1574  143.3113  170.8561 C.3     1  UNL1        0.1110
      7 N         142.4651  142.7137  169.6672 N.am    1  UNL1       -0.2967
      8 C         142.5634  141.2402  169.4043 C.2     1  UNL1        0.2806
      9 O         143.3541  140.3642  170.3304 O.2     1  UNL1       -0.2668
     10 H         141.9462  143.2886  169.0594 H       1  UNL1        0.1499
     11 C         141.6930  138.9161  164.7436 C.2     1  UNL1        0.2486
     12 O         141.5328  137.4310  164.6060 O.2     1  UNL1       -0.2700
     13 N         142.0754  139.7428  163.5519 N.am    1  UNL1       -0.3024
     14 H         142.1806  140.7175  163.6423 H       1  UNL1        0.1497
     15 C         142.2974  139.0845  162.2224 C.3     1  UNL1        0.0720
     16 C         141.2799  139.2367  161.1309 C.3     1  UNL1        0.0221
     17 C         141.5019  138.5784  159.8015 C.3     1  UNL1        0.0309
     18 C         142.7415  137.7680  159.5636 C.3     1  UNL1        0.1106
     19 O         142.9636  137.1097  158.2342 O.3     1  UNL1       -0.3845
     20 C         143.7591  137.6159  160.6551 C.3     1  UNL1        0.0309
     21 C         143.5370  138.2741  161.9845 C.3     1  UNL1        0.0221
     22 H         142.2169  137.3067  157.6471 H       1  UNL1        0.2103
     23 C         138.7983  139.5631  166.1041 C.3     1  UNL1        0.0798
     24 C         137.8605  138.6312  166.8128 C.3     1  UNL1        0.0127
     25 C         138.3938  140.1862  164.8010 C.ar    1  UNL1       -0.0153
     26 C         138.0927  141.6541  164.7331 C.ar    1  UNL1       -0.0039
     27 C         137.6882  142.2774  163.4301 C.ar    1  UNL1       -0.0003
     28 C         137.5849  141.4327  162.1948 C.ar    1  UNL1       -0.0000
     29 C         137.8860  139.9648  162.2626 C.ar    1  UNL1       -0.0003
     30 C         138.2905  139.3416  163.5657 C.ar    1  UNL1       -0.0039
@<TRIPOS>BOND
     1     6     7    1
     2     7     8   am
     3     8     9    2
     4     8     1    1
     5     1     2   ar
     6     2     3   ar
     7     3    11    1
     8    11    12    2
     9    11    13   am
    10    15    13    1
    11    15    16    1
    12    16    17    1
    13    17    18    1
    14    18    19    1
    15    18    20    1
    16    20    21    1
    17     3     4   ar
    18     4    23    1
    19    23    24    1
    20    23    25    1
    21    25    26   ar
    22    26    27   ar
    23    27    28   ar
    24    28    29   ar
    25    29    30   ar
    26     4     5   ar
    27     5     1   ar
    28    21    15    1
    29    30    25   ar
    30     7    10    1
    31    13    14    1
    32    19    22    1
@<TRIPOS>MOLECULE
*****
 30 32 0 0 0
SMALL
GASTEIGER

@<TRIPOS>ATOM
      1 C         140.4814  143.3378  160.5385 C.ar    1  UNL1        0.1980
      2 C         140.4063  143.6098  162.0118 C.ar    1  UNL1        0.0494
      3 C         139.8099  142.4042  162.6759 C.ar    1  UNL1        0.0871
      4 C         139.5164  141.3872  161.6131 C.ar    1  UNL1        0.1310
      5 O         139.9314  141.9641  160.2921 O.2     1  UNL1       -0.4527
      6 C         140.5961  145.9736  157.5739 C.3     1  UNL1        0.1110
      7 N         140.0644  145.0365  158.6175 N.am    1  UNL1       -0.2967
      8 C         141.0131  144.2749  159.4949 C.2     1  UNL1        0.2806
      9 O         142.4935  144.4504  159.3288 O.2     1  UNL1       -0.2668
     10 H         139.0927  144.9213  158.7265 H       1  UNL1        0.1499
     11 C         139.5522  142.2439  164.1449 C.2     1  UNL1        0.2486
     12 O         138.2079  142.5906  164.7128 O.2     1  UNL1       -0.2700
     13 N         140.6389  141.7368  165.0460 N.am    1  UNL1       -0.3024
     14 H         141.5212  141.5092  164.6732 H       1  UNL1        0.1497
     15 C         140.3812  141.5765  166.5150 C.3     1  UNL1        0.0720
     16 C         139.7954  140.2988  167.0386 C.3     1  UNL1        0.0221
     17 C         139.5377  140.1385  168.5076 C.3     1  UNL1        0.0309
     18 C         139.8660  141.2559  169.4529 C.3     1  UNL1        0.1106
     19 O         139.6084  141.0956  170.9220 O.3     1  UNL1       -0.3845
     20 C         140.4519  142.5336  168.9293 C.3     1  UNL1        0.0309
     21 C         140.7095  142.6939  167.4603 C.3     1  UNL1        0.0221
     22 H         139.2310  140.2180  171.0902 H       1  UNL1        0.2103
     23 C         138.9137  140.0313  161.8327 C.3     1  UNL1        0.0798
     24 C         137.6209  139.6679  161.1646 C.3     1  UNL1        0.0127
     25 C         139.6040  139.0386  162.7206 C.ar    1  UNL1       -0.0153
     26 C         138.8811  138.4569  163.8992 C.ar    1  UNL1       -0.0039
     27 C         139.5712  137.4643  164.7871 C.ar    1  UNL1       -0.0003
     28 C         140.9842  137.0533  164.4964 C.ar    1  UNL1       -0.0000
     29 C         141.7071  137.6350  163.3178 C.ar    1  UNL1       -0.0003
     30 C         141.0169  138.6276  162.4299 C.ar    1  UNL1       -0.0039
@<TRIPOS>BOND
     1     6     7    1
     2     7     8   am
     3     8     9    2
     4     8     1    1
     5     1     2   ar
     6     2     3   ar
     7     3    11    1
     8    11    12    2
     9    11    13   am
    10    15    13    1
    11    15    16    1
    12    16    17    1
    13    17    18    1
    14    18    19    1
    15    18    20    1
    16    20    21    1
    17     3     4   ar
    18     4    23    1
    19    23    24    1
    20    23    25    1
    21    25    26   ar
    22    26    27   ar
    23    27    28   ar
    24    28    29   ar
    25    29    30   ar
    26     4     5   ar
    27     5     1   ar
    28    21    15    1
    29    30    25   ar
    30     7    10    1
    31    13    14    1
    32    19    22    1
@<TRIPOS>MOLECULE
*****
 30 32 0 0 0
SMALL
GASTEIGER

@<TRIPOS>ATOM
      1 C         138.4547  142.3719  159.4188 C.ar    1  UNL1        0.1980
      2 C         138.2101  141.7806  160.7756 C.ar    1  UNL1        0.0494
      3 C         138.8672  142.6662  161.7924 C.ar    1  UNL1        0.0871
      4 C         139.5179  143.8047  161.0643 C.ar    1  UNL1        0.1310
      5 O         139.2630  143.6229  159.5973 O.2     1  UNL1       -0.4527
      6 C         137.5206  142.0995  155.5714 C.3     1  UNL1        0.1110
      7 N         138.0001  142.6607  156.8772 N.am    1  UNL1       -0.2967
      8 C         137.9753  141.8108  158.1130 C.2     1  UNL1        0.2806
      9 O         137.4710  140.3999  158.0430 O.2     1  UNL1       -0.2668
     10 H         138.3311  143.5867  156.9232 H       1  UNL1        0.1499
     11 C         138.8726  142.4509  163.2770 C.2     1  UNL1        0.2486
     12 O         137.6539  142.7804  164.0870 O.2     1  UNL1       -0.2700
     13 N         140.0966  141.9060  163.9513 N.am    1  UNL1       -0.3024
     14 H         140.8965  141.6898  163.4197 H       1  UNL1        0.1497
     15 C         140.1020  141.6907  165.4358 C.3     1  UNL1        0.0720
     16 C         140.5971  142.7730  166.3489 C.3     1  UNL1        0.0221
     17 C         140.6024  142.5576  167.8333 C.3     1  UNL1        0.0309
     18 C         140.1128  141.2600  168.4047 C.3     1  UNL1        0.1106
     19 O         140.1182  141.0447  169.8892 O.3     1  UNL1       -0.3845
     20 C         139.6177  140.1778  167.4917 C.3     1  UNL1        0.0309
     21 C         139.6123  140.3932  166.0073 C.3     1  UNL1        0.0221
     22 H         140.4659  141.8360  170.3294 H       1  UNL1        0.2103
     23 C         140.2882  144.9279  161.6928 C.3     1  UNL1        0.0798
     24 C         139.6967  146.3053  161.7465 C.3     1  UNL1        0.0127
     25 C         141.6502  144.6737  162.2676 C.ar    1  UNL1       -0.0153
     26 C         142.6331  143.8226  161.5195 C.ar    1  UNL1       -0.0039
     27 C         143.9951  143.5684  162.0943 C.ar    1  UNL1       -0.0003
     28 C         144.3742  144.1652  163.4172 C.ar    1  UNL1       -0.0000
     29 C         143.3914  145.0163  164.1653 C.ar    1  UNL1       -0.0003
     30 C         142.0294  145.2705  163.5905 C.ar    1  UNL1       -0.0039
@<TRIPOS>BOND
     1     6     7    1
     2     7     8   am
     3     8     9    2
     4     8     1    1
     5     1     2   ar
     6     2     3   ar
     7     3    11    1
     8    11    12    2
     9    11    13   am
    10    15    13    1
    11    15    16    1
    12    16    17    1
    13    17    18    1
    14    18    19    1
    15    18    20    1
    16    20    21    1
    17     3     4   ar
    18     4    23    1
    19    23    24    1
    20    23    25    1
    21    25    26   ar
    22    26    27   ar
    23    27    28   ar
    24    28    29   ar
    25    29    30   ar
    26     4     5   ar
    27     5     1   ar
    28    21    15    1
    29    30    25   ar
    30     7    10    1
    31    13    14    1
    32    19    22    1
@<TRIPOS>MOLECULE
*****
 30 32 0 0 0
SMALL
GASTEIGER

@<TRIPOS>ATOM
      1 C         139.0215  140.0359  168.8744 C.ar    1  UNL1        0.1980
      2 C         138.6514  139.5415  167.5074 C.ar    1  UNL1        0.0494
      3 C         139.4458  140.3210  166.5018 C.ar    1  UNL1        0.0871
      4 C         140.3069  141.2972  167.2472 C.ar    1  UNL1        0.1310
      5 O         140.0447  141.1209  168.7136 O.2     1  UNL1       -0.4527
      6 C         136.4770  138.5977  171.5590 C.3     1  UNL1        0.1110
      7 N         137.0325  139.1001  170.2594 N.am    1  UNL1       -0.2967
      8 C         138.4660  139.5334  170.1740 C.2     1  UNL1        0.2806
      9 O         139.3441  139.4642  171.3881 O.2     1  UNL1       -0.2668
     10 H         136.4562  139.1456  169.4625 H       1  UNL1        0.1499
     11 C         139.3890  140.1538  165.0122 C.2     1  UNL1        0.2486
     12 O         140.4728  139.3996  164.3003 O.2     1  UNL1       -0.2700
     13 N         138.2485  140.7406  164.2345 N.am    1  UNL1       -0.3024
     14 H         137.5372  141.2355  164.7017 H       1  UNL1        0.1497
     15 C         138.1918  140.5733  162.7449 C.3     1  UNL1        0.0720
     16 C         138.4733  141.7419  161.8476 C.3     1  UNL1        0.0221
     17 C         138.4165  141.5746  160.3581 C.3     1  UNL1        0.0309
     18 C         138.0782  140.2387  159.7658 C.3     1  UNL1        0.1106
     19 O         138.0215  140.0714  158.2762 O.3     1  UNL1       -0.3845
     20 C         137.7967  139.0701  160.6630 C.3     1  UNL1        0.0309
     21 C         137.8534  139.2374  162.1525 C.3     1  UNL1        0.0221
     22 H         138.2274  140.9169  157.8478 H       1  UNL1        0.2103
     23 C         141.2623  142.2774  166.6339 C.3     1  UNL1        0.0798
     24 C         142.6886  142.3241  167.0961 C.3     1  UNL1        0.0127
     25 C         140.7916  143.2110  165.5584 C.ar    1  UNL1       -0.0153
     26 C         139.4549  143.8809  165.6790 C.ar    1  UNL1       -0.0039
     27 C         138.9841  144.8145  164.6035 C.ar    1  UNL1       -0.0003
     28 C         139.8500  145.0783  163.4074 C.ar    1  UNL1       -0.0000
     29 C         141.1866  144.4085  163.2868 C.ar    1  UNL1       -0.0003
     30 C         141.6575  143.4749  164.3623 C.ar    1  UNL1       -0.0039
@<TRIPOS>BOND
     1     6     7    1
     2     7     8   am
     3     8     9    2
     4     8     1    1
     5     1     2   ar
     6     2     3   ar
     7     3    11    1
     8    11    12    2
     9    11    13   am
    10    15    13    1
    11    15    16    1
    12    16    17    1
    13    17    18    1
    14    18    19    1
    15    18    20    1
    16    20    21    1
    17     3     4   ar
    18     4    23    1
    19    23    24    1
    20    23    25    1
    21    25    26   ar
    22    26    27   ar
    23    27    28   ar
    24    28    29   ar
    25    29    30   ar
    26     4     5   ar
    27     5     1   ar
    28    21    15    1
    29    30    25   ar
    30     7    10    1
    31    13    14    1
    32    19    22    1
