@<TRIPOS>MOLECULE
*****
 25 28 0 0 0
SMALL
GASTEIGER

@<TRIPOS>ATOM
      1 N         143.6320  143.9970  171.4464 N.pl3   1  UNL1       -0.3375
      2 C         143.0203  143.1702  170.3544 C.ar    1  UNL1        0.1567
      3 N         143.7079  142.7183  169.1001 N.ar    1  UNL1       -0.2245
      4 C         142.7262  141.9190  168.2957 C.ar    1  UNL1        0.0889
      5 C         142.8436  141.2241  166.9715 C.ar    1  UNL1        0.0151
      6 C         141.6667  140.4869  166.4044 C.ar    1  UNL1       -0.0232
      7 C         140.3725  140.4448  167.1614 C.ar    1  UNL1       -0.0241
      8 C         140.2550  141.1396  168.4855 C.ar    1  UNL1        0.0035
      9 C         141.4319  141.8768  169.0526 C.ar    1  UNL1        0.0494
     10 S         141.6137  142.6501  170.3250 S.2     1  UNL1       -0.0520
     11 C         139.0872  139.7720  166.7797 C.3     1  UNL1        0.0434
     12 C         138.7789  138.9754  165.5466 C.3     1  UNL1        0.0771
     13 N         139.6796  138.6547  164.3909 N.3     1  UNL1       -0.2683
     14 C         141.1111  139.0514  164.1826 C.3     1  UNL1        0.0771
     15 C         141.9955  139.8669  165.0787 C.3     1  UNL1        0.0434
     16 H         144.5684  144.2923  171.3744 H       1  UNL1        0.1442
     17 H         143.0970  144.2443  172.2350 H       1  UNL1        0.1442
     18 C         139.0679  137.8279  163.2990 C.3     1  UNL1        0.0992
     19 C         138.9194  138.3986  161.9197 C.ar    1  UNL1       -0.0060
     20 C         139.9291  138.0711  160.8598 C.ar    1  UNL1       -0.0006
     21 C         139.7806  138.6417  159.4806 C.ar    1  UNL1        0.0294
     22 C         138.6224  139.5398  159.1612 C.ar    1  UNL1        0.1401
     23 F         138.4738  140.1105  157.7819 F       1  UNL1       -0.2042
     24 C         137.6127  139.8673  160.2211 C.ar    1  UNL1        0.0294
     25 C         137.7611  139.2967  161.6003 C.ar    1  UNL1       -0.0006
@<TRIPOS>BOND
     1     1     2    1
     2     2     3   ar
     3     3     4   ar
     4     4     5   ar
     5     5     6   ar
     6     6     7   ar
     7     7     8   ar
     8     8     9   ar
     9     9    10   ar
    10     7    11    1
    11    11    12    1
    12    12    13    1
    13    13    18    1
    14    18    19    1
    15    19    20   ar
    16    20    21   ar
    17    21    22   ar
    18    22    23    1
    19    22    24   ar
    20    24    25   ar
    21    13    14    1
    22    14    15    1
    23    10     2   ar
    24    25    19   ar
    25     9     4   ar
    26    15     6    1
    27     1    16    1
    28     1    17    1
@<TRIPOS>MOLECULE
*****
 25 28 0 0 0
SMALL
GASTEIGER

@<TRIPOS>ATOM
      1 N         143.5754  144.0414  171.4933 N.pl3   1  UNL1       -0.3375
      2 C         142.9673  143.2126  170.4010 C.ar    1  UNL1        0.1567
      3 N         141.5873  143.3745  169.8356 N.ar    1  UNL1       -0.2245
      4 C         141.3996  142.3384  168.7674 C.ar    1  UNL1        0.0889
      5 C         140.2410  142.0218  167.8688 C.ar    1  UNL1        0.0151
      6 C         140.3463  140.9028  166.8753 C.ar    1  UNL1       -0.0232
      7 C         141.6101  140.1006  166.7805 C.ar    1  UNL1       -0.0241
      8 C         142.7687  140.4171  167.6790 C.ar    1  UNL1        0.0035
      9 C         142.6634  141.5361  168.6725 C.ar    1  UNL1        0.0494
     10 S         143.6323  142.0764  169.6821 S.2     1  UNL1       -0.0520
     11 C         141.9227  138.9523  165.8672 C.3     1  UNL1        0.0434
     12 C         141.0485  138.3228  164.8233 C.3     1  UNL1        0.0771
     13 N         139.6461  138.6861  164.4349 N.3     1  UNL1       -0.2683
     14 C         138.7712  139.7686  164.9943 C.3     1  UNL1        0.0771
     15 C         139.0828  140.7551  166.0804 C.3     1  UNL1        0.0434
     16 H         143.0566  144.7694  171.9057 H       1  UNL1        0.1442
     17 H         144.4933  143.8574  171.7979 H       1  UNL1        0.1442
     18 C         139.0380  137.8573  163.3425 C.3     1  UNL1        0.0992
     19 C         138.9323  138.4100  161.9520 C.ar    1  UNL1       -0.0060
     20 C         140.0036  138.1152  160.9443 C.ar    1  UNL1       -0.0006
     21 C         139.8980  138.6678  159.5539 C.ar    1  UNL1        0.0294
     22 C         138.7211  139.5153  159.1711 C.ar    1  UNL1        0.1401
     23 F         138.6155  140.0681  157.7806 F       1  UNL1       -0.2042
     24 C         137.6498  139.8102  160.1787 C.ar    1  UNL1        0.0294
     25 C         137.7554  139.2576  161.5692 C.ar    1  UNL1       -0.0006
@<TRIPOS>BOND
     1     1     2    1
     2     2     3   ar
     3     3     4   ar
     4     4     5   ar
     5     5     6   ar
     6     6     7   ar
     7     7     8   ar
     8     8     9   ar
     9     9    10   ar
    10     7    11    1
    11    11    12    1
    12    12    13    1
    13    13    18    1
    14    18    19    1
    15    19    20   ar
    16    20    21   ar
    17    21    22   ar
    18    22    23    1
    19    22    24   ar
    20    24    25   ar
    21    13    14    1
    22    14    15    1
    23    10     2   ar
    24    25    19   ar
    25     9     4   ar
    26    15     6    1
    27     1    16    1
    28     1    17    1
@<TRIPOS>MOLECULE
*****
 25 28 0 0 0
SMALL
GASTEIGER

@<TRIPOS>ATOM
      1 N         138.8525  139.3388  156.0516 N.pl3   1  UNL1       -0.3375
      2 C         138.9211  139.3364  157.5500 C.ar    1  UNL1        0.1567
      3 N         137.9882  140.0584  158.4765 N.ar    1  UNL1       -0.2245
      4 C         138.4251  139.7797  159.8841 C.ar    1  UNL1        0.0889
      5 C         137.8830  140.2248  161.2101 C.ar    1  UNL1        0.0151
      6 C         138.5439  139.7755  162.4795 C.ar    1  UNL1       -0.0232
      7 C         139.7468  138.8813  162.4229 C.ar    1  UNL1       -0.0241
      8 C         140.2889  138.4362  161.0971 C.ar    1  UNL1        0.0035
      9 C         139.6281  138.8855  159.8276 C.ar    1  UNL1        0.0494
     10 S         139.9346  138.6115  158.3850 S.2     1  UNL1       -0.0520
     11 C         140.5505  138.3217  163.5593 C.3     1  UNL1        0.0434
     12 C         140.3496  138.5184  165.0328 C.3     1  UNL1        0.0771
     13 N         139.2956  139.3230  165.7337 N.3     1  UNL1       -0.2683
     14 C         138.1820  140.1298  165.1345 C.3     1  UNL1        0.0771
     15 C         137.8475  140.3312  163.6862 C.3     1  UNL1        0.0434
     16 H         138.1463  139.8479  155.5919 H       1  UNL1        0.1442
     17 H         139.5138  138.8313  155.5277 H       1  UNL1        0.1442
     18 C         139.3642  139.3206  167.2322 C.3     1  UNL1        0.0992
     19 C         139.7139  140.5795  167.9691 C.ar    1  UNL1       -0.0060
     20 C         140.3749  141.7140  167.2438 C.ar    1  UNL1       -0.0006
     21 C         140.7246  142.9728  167.9806 C.ar    1  UNL1        0.0294
     22 C         140.4134  143.0972  169.4427 C.ar    1  UNL1        0.1401
     23 F         140.7631  144.3561  170.1796 F       1  UNL1       -0.2042
     24 C         139.7524  141.9626  170.1680 C.ar    1  UNL1        0.0294
     25 C         139.4026  140.7038  169.4312 C.ar    1  UNL1       -0.0006
@<TRIPOS>BOND
     1     1     2    1
     2     2     3   ar
     3     3     4   ar
     4     4     5   ar
     5     5     6   ar
     6     6     7   ar
     7     7     8   ar
     8     8     9   ar
     9     9    10   ar
    10     7    11    1
    11    11    12    1
    12    12    13    1
    13    13    18    1
    14    18    19    1
    15    19    20   ar
    16    20    21   ar
    17    21    22   ar
    18    22    23    1
    19    22    24   ar
    20    24    25   ar
    21    13    14    1
    22    14    15    1
    23    10     2   ar
    24    25    19   ar
    25     9     4   ar
    26    15     6    1
    27     1    16    1
    28     1    17    1
@<TRIPOS>MOLECULE
*****
 25 28 0 0 0
SMALL
GASTEIGER

@<TRIPOS>ATOM
      1 N         137.7668  141.2680  157.1503 N.pl3   1  UNL1       -0.3375
      2 C         138.0126  141.1190  158.6225 C.ar    1  UNL1        0.1567
      3 N         137.7728  139.8815  159.4357 N.ar    1  UNL1       -0.2245
      4 C         138.1532  140.1790  160.8557 C.ar    1  UNL1        0.0889
      5 C         138.1285  139.3393  162.0984 C.ar    1  UNL1        0.0151
      6 C         138.5788  139.9210  163.4057 C.ar    1  UNL1       -0.0232
      7 C         139.0537  141.3422  163.4703 C.ar    1  UNL1       -0.0241
      8 C         139.0785  142.1820  162.2277 C.ar    1  UNL1        0.0035
      9 C         138.6282  141.6004  160.9203 C.ar    1  UNL1        0.0494
     10 S         138.5412  142.1813  159.5401 S.2     1  UNL1       -0.0520
     11 C         139.5420  142.1120  164.6616 C.3     1  UNL1        0.0434
     12 C         139.6759  141.6504  166.0826 C.3     1  UNL1        0.0771
     13 N         139.3546  140.3052  166.6631 N.3     1  UNL1       -0.2683
     14 C         138.8200  139.0892  165.9661 C.3     1  UNL1        0.0771
     15 C         138.4748  138.9182  164.5165 C.3     1  UNL1        0.0434
     16 H         137.4162  140.5090  156.6304 H       1  UNL1        0.1442
     17 H         137.9562  142.1248  156.7039 H       1  UNL1        0.1442
     18 C         139.6003  140.1562  168.1353 C.3     1  UNL1        0.0992
     19 C         140.6011  141.0378  168.8217 C.ar    1  UNL1       -0.0060
     20 C         140.1549  142.3134  169.4728 C.ar    1  UNL1       -0.0006
     21 C         141.1556  143.1950  170.1592 C.ar    1  UNL1        0.0294
     22 C         142.6026  142.8011  170.1946 C.ar    1  UNL1        0.1401
     23 F         143.6034  143.6828  170.8811 F       1  UNL1       -0.2042
     24 C         143.0488  141.5255  169.5436 C.ar    1  UNL1        0.0294
     25 C         142.0481  140.6439  168.8571 C.ar    1  UNL1       -0.0006
@<TRIPOS>BOND
     1     1     2    1
     2     2     3   ar
     3     3     4   ar
     4     4     5   ar
     5     5     6   ar
     6     6     7   ar
     7     7     8   ar
     8     8     9   ar
     9     9    10   ar
    10     7    11    1
    11    11    12    1
    12    12    13    1
    13    13    18    1
    14    18    19    1
    15    19    20   ar
    16    20    21   ar
    17    21    22   ar
    18    22    23    1
    19    22    24   ar
    20    24    25   ar
    21    13    14    1
    22    14    15    1
    23    10     2   ar
    24    25    19   ar
    25     9     4   ar
    26    15     6    1
    27     1    16    1
    28     1    17    1
@<TRIPOS>MOLECULE
*****
 25 28 0 0 0
SMALL
GASTEIGER

@<TRIPOS>ATOM
      1 N         142.7158  137.7426  156.1702 N.pl3   1  UNL1       -0.3375
      2 C         142.2326  137.9325  157.5775 C.ar    1  UNL1        0.1567
      3 N         143.0248  137.6727  158.8245 N.ar    1  UNL1       -0.2245
      4 C         142.1540  137.9953  160.0024 C.ar    1  UNL1        0.0889
      5 C         142.4007  137.9302  161.4806 C.ar    1  UNL1        0.0151
      6 C         141.3169  138.3243  162.4399 C.ar    1  UNL1       -0.0232
      7 C         139.9866  138.7834  161.9210 C.ar    1  UNL1       -0.0241
      8 C         139.7399  138.8485  160.4429 C.ar    1  UNL1        0.0035
      9 C         140.8236  138.4544  159.4836 C.ar    1  UNL1        0.0494
     10 S         140.8722  138.4156  157.9849 S.2     1  UNL1       -0.0520
     11 C         138.7792  139.2182  162.6978 C.3     1  UNL1        0.0434
     12 C         138.6041  139.3013  164.1853 C.3     1  UNL1        0.0771
     13 N         139.5931  138.9700  165.2632 N.3     1  UNL1       -0.2683
     14 C         141.0014  138.4739  165.1202 C.3     1  UNL1        0.0771
     15 C         141.7686  138.1866  163.8637 C.3     1  UNL1        0.0434
     16 H         143.6306  137.4193  156.0033 H       1  UNL1        0.1442
     17 H         142.1182  137.9412  155.4135 H       1  UNL1        0.1442
     18 C         139.1098  139.1600  166.6705 C.3     1  UNL1        0.0992
     19 C         139.5663  140.3465  167.4666 C.ar    1  UNL1       -0.0060
     20 C         140.1210  141.5514  166.7659 C.ar    1  UNL1       -0.0006
     21 C         140.5774  142.7379  167.5620 C.ar    1  UNL1        0.0294
     22 C         140.4793  142.7196  169.0586 C.ar    1  UNL1        0.1401
     23 F         140.9359  143.9062  169.8548 F       1  UNL1       -0.2042
     24 C         139.9247  141.5148  169.7593 C.ar    1  UNL1        0.0294
     25 C         139.4682  140.3283  168.9633 C.ar    1  UNL1       -0.0006
@<TRIPOS>BOND
     1     1     2    1
     2     2     3   ar
     3     3     4   ar
     4     4     5   ar
     5     5     6   ar
     6     6     7   ar
     7     7     8   ar
     8     8     9   ar
     9     9    10   ar
    10     7    11    1
    11    11    12    1
    12    12    13    1
    13    13    18    1
    14    18    19    1
    15    19    20   ar
    16    20    21   ar
    17    21    22   ar
    18    22    23    1
    19    22    24   ar
    20    24    25   ar
    21    13    14    1
    22    14    15    1
    23    10     2   ar
    24    25    19   ar
    25     9     4   ar
    26    15     6    1
    27     1    16    1
    28     1    17    1
@<TRIPOS>MOLECULE
*****
 25 28 0 0 0
SMALL
GASTEIGER

@<TRIPOS>ATOM
      1 N         143.7451  139.5153  171.4688 N.pl3   1  UNL1       -0.3375
      2 C         143.0284  139.9811  170.2361 C.ar    1  UNL1        0.1567
      3 N         142.8326  139.1888  168.9776 N.ar    1  UNL1       -0.2245
      4 C         142.0649  140.0390  168.0093 C.ar    1  UNL1        0.0889
      5 C         141.5836  139.7835  166.6117 C.ar    1  UNL1        0.0151
      6 C         140.8236  140.8459  165.8742 C.ar    1  UNL1       -0.0232
      7 C         140.5449  142.1636  166.5343 C.ar    1  UNL1       -0.0241
      8 C         141.0262  142.4192  167.9317 C.ar    1  UNL1        0.0035
      9 C         141.7862  141.3569  168.6693 C.ar    1  UNL1        0.0494
     10 S         142.3817  141.3211  170.0456 S.2     1  UNL1       -0.0520
     11 C         139.8109  143.3495  165.9821 C.3     1  UNL1        0.0434
     12 C         139.1742  143.5104  164.6334 C.3     1  UNL1        0.0771
     13 N         139.1143  142.5252  163.5040 N.3     1  UNL1       -0.2683
     14 C         139.6763  141.1357  163.4441 C.3     1  UNL1        0.0771
     15 C         140.4370  140.3883  164.4990 C.3     1  UNL1        0.0434
     16 H         144.1386  138.6134  171.4982 H       1  UNL1        0.1442
     17 H         143.8218  140.1116  172.2485 H       1  UNL1        0.1442
     18 C         138.3976  142.9909  162.2713 C.3     1  UNL1        0.0992
     19 C         139.1741  143.5699  161.1259 C.ar    1  UNL1       -0.0060
     20 C         139.9450  144.8435  161.3101 C.ar    1  UNL1       -0.0006
     21 C         140.7214  145.4225  160.1648 C.ar    1  UNL1        0.0294
     22 C         140.7271  144.7279  158.8352 C.ar    1  UNL1        0.1401
     23 F         141.5036  145.3069  157.6898 F       1  UNL1       -0.2042
     24 C         139.9562  143.4544  158.6511 C.ar    1  UNL1        0.0294
     25 C         139.1798  142.8754  159.7964 C.ar    1  UNL1       -0.0006
@<TRIPOS>BOND
     1     1     2    1
     2     2     3   ar
     3     3     4   ar
     4     4     5   ar
     5     5     6   ar
     6     6     7   ar
     7     7     8   ar
     8     8     9   ar
     9     9    10   ar
    10     7    11    1
    11    11    12    1
    12    12    13    1
    13    13    18    1
    14    18    19    1
    15    19    20   ar
    16    20    21   ar
    17    21    22   ar
    18    22    23    1
    19    22    24   ar
    20    24    25   ar
    21    13    14    1
    22    14    15    1
    23    10     2   ar
    24    25    19   ar
    25     9     4   ar
    26    15     6    1
    27     1    16    1
    28     1    17    1
@<TRIPOS>MOLECULE
*****
 25 28 0 0 0
SMALL
GASTEIGER

@<TRIPOS>ATOM
      1 N         142.5313  140.5914  171.5542 N.pl3   1  UNL1       -0.3375
      2 C         142.0736  140.2501  170.1671 C.ar    1  UNL1        0.1567
      3 N         142.9376  139.7313  169.0561 N.ar    1  UNL1       -0.2245
      4 C         142.0694  139.5282  167.8499 C.ar    1  UNL1        0.0889
      5 C         142.3733  139.0360  166.4659 C.ar    1  UNL1        0.0151
      6 C         141.2765  138.9371  165.4474 C.ar    1  UNL1       -0.0232
      7 C         139.8760  139.3304  165.8129 C.ar    1  UNL1       -0.0241
      8 C         139.5720  139.8226  167.1968 C.ar    1  UNL1        0.0035
      9 C         140.6688  139.9215  168.2154 C.ar    1  UNL1        0.0494
     10 S         140.6714  140.3676  169.6475 S.2     1  UNL1       -0.0520
     11 C         138.6447  139.3088  164.9563 C.3     1  UNL1        0.0434
     12 C         138.5102  138.8885  163.5226 C.3     1  UNL1        0.0771
     13 N         139.5734  138.3861  162.5916 N.3     1  UNL1       -0.2683
     14 C         141.0340  138.1798  162.8641 C.3     1  UNL1        0.0771
     15 C         141.7920  138.4251  164.1351 C.3     1  UNL1        0.0434
     16 H         143.4776  140.4798  171.8017 H       1  UNL1        0.1442
     17 H         141.8854  140.9269  172.2171 H       1  UNL1        0.1442
     18 C         139.1157  138.0448  161.2045 C.3     1  UNL1        0.0992
     19 C         139.2762  139.0416  160.0951 C.ar    1  UNL1       -0.0060
     20 C         138.2065  140.0626  159.8437 C.ar    1  UNL1       -0.0006
     21 C         138.3669  141.0594  158.7344 C.ar    1  UNL1        0.0294
     22 C         139.5972  141.0352  157.8765 C.ar    1  UNL1        0.1401
     23 F         139.7577  142.0320  156.7671 F       1  UNL1       -0.2042
     24 C         140.6669  140.0142  158.1279 C.ar    1  UNL1        0.0294
     25 C         140.5065  139.0174  159.2372 C.ar    1  UNL1       -0.0006
@<TRIPOS>BOND
     1     1     2    1
     2     2     3   ar
     3     3     4   ar
     4     4     5   ar
     5     5     6   ar
     6     6     7   ar
     7     7     8   ar
     8     8     9   ar
     9     9    10   ar
    10     7    11    1
    11    11    12    1
    12    12    13    1
    13    13    18    1
    14    18    19    1
    15    19    20   ar
    16    20    21   ar
    17    21    22   ar
    18    22    23    1
    19    22    24   ar
    20    24    25   ar
    21    13    14    1
    22    14    15    1
    23    10     2   ar
    24    25    19   ar
    25     9     4   ar
    26    15     6    1
    27     1    16    1
    28     1    17    1
@<TRIPOS>MOLECULE
*****
 25 28 0 0 0
SMALL
GASTEIGER

@<TRIPOS>ATOM
      1 N         143.6371  139.6820  171.4316 N.pl3   1  UNL1       -0.3375
      2 C         142.8520  140.0646  170.2121 C.ar    1  UNL1        0.1567
      3 N         143.1502  141.2145  169.2963 N.ar    1  UNL1       -0.2245
      4 C         142.1133  141.2250  168.2125 C.ar    1  UNL1        0.0889
      5 C         141.9029  142.1281  167.0334 C.ar    1  UNL1        0.0151
      6 C         140.7533  141.8877  166.1003 C.ar    1  UNL1       -0.0232
      7 C         139.8142  140.7444  166.3463 C.ar    1  UNL1       -0.0241
      8 C         140.0245  139.8413  167.5254 C.ar    1  UNL1        0.0035
      9 C         141.1741  140.0816  168.4585 C.ar    1  UNL1        0.0494
     10 S         141.6306  139.3645  169.6943 S.2     1  UNL1       -0.0520
     11 C         138.6146  140.3305  165.5463 C.3     1  UNL1        0.0434
     12 C         138.0582  140.9580  164.3025 C.3     1  UNL1        0.0771
     13 N         138.5637  142.1541  163.5519 N.3     1  UNL1       -0.2683
     14 C         139.7506  143.0183  163.8593 C.3     1  UNL1        0.0771
     15 C         140.7250  142.8998  164.9935 C.3     1  UNL1        0.0434
     16 H         144.4286  140.2064  171.6920 H       1  UNL1        0.1442
     17 H         143.3609  138.9065  171.9716 H       1  UNL1        0.1442
     18 C         137.7785  142.5367  162.3324 C.3     1  UNL1        0.0992
     19 C         138.2512  142.1143  160.9729 C.ar    1  UNL1       -0.0060
     20 C         138.9693  143.0925  160.0911 C.ar    1  UNL1       -0.0006
     21 C         139.4420  142.6702  158.7317 C.ar    1  UNL1        0.0294
     22 C         139.1967  141.2696  158.2540 C.ar    1  UNL1        0.1401
     23 F         139.6694  140.8472  156.8945 F       1  UNL1       -0.2042
     24 C         138.4786  140.2914  159.1358 C.ar    1  UNL1        0.0294
     25 C         138.0059  140.7137  160.4952 C.ar    1  UNL1       -0.0006
@<TRIPOS>BOND
     1     1     2    1
     2     2     3   ar
     3     3     4   ar
     4     4     5   ar
     5     5     6   ar
     6     6     7   ar
     7     7     8   ar
     8     8     9   ar
     9     9    10   ar
    10     7    11    1
    11    11    12    1
    12    12    13    1
    13    13    18    1
    14    18    19    1
    15    19    20   ar
    16    20    21   ar
    17    21    22   ar
    18    22    23    1
    19    22    24   ar
    20    24    25   ar
    21    13    14    1
    22    14    15    1
    23    10     2   ar
    24    25    19   ar
    25     9     4   ar
    26    15     6    1
    27     1    16    1
    28     1    17    1
@<TRIPOS>MOLECULE
*****
 25 28 0 0 0
SMALL
GASTEIGER

@<TRIPOS>ATOM
      1 N         140.2682  142.5058  171.5397 N.pl3   1  UNL1       -0.3375
      2 C         140.1400  141.9401  170.1563 C.ar    1  UNL1        0.1567
      3 N         139.5156  140.6246  169.7961 N.ar    1  UNL1       -0.2245
      4 C         139.6034  140.4621  168.3075 C.ar    1  UNL1        0.0889
      5 C         139.1530  139.3646  167.3894 C.ar    1  UNL1        0.0151
      6 C         139.3813  139.4823  165.9115 C.ar    1  UNL1       -0.0232
      7 C         140.0598  140.6972  165.3518 C.ar    1  UNL1       -0.0241
      8 C         140.5101  141.7946  166.2698 C.ar    1  UNL1        0.0035
      9 C         140.2819  141.6771  167.7477 C.ar    1  UNL1        0.0494
     10 S         140.6136  142.5905  168.8904 S.2     1  UNL1       -0.0520
     11 C         140.3826  141.0125  163.9212 C.3     1  UNL1        0.0434
     12 C         140.1066  140.1906  162.6971 C.3     1  UNL1        0.0771
     13 N         139.4396  138.8506  162.6013 N.3     1  UNL1       -0.2683
     14 C         138.8839  138.0013  163.7059 C.3     1  UNL1        0.0771
     15 C         138.8579  138.2824  165.1790 C.3     1  UNL1        0.0434
     16 H         139.9246  142.0008  172.3118 H       1  UNL1        0.1442
     17 H         140.6960  143.3820  171.6754 H       1  UNL1        0.1442
     18 C         139.3114  138.2849  161.2180 C.3     1  UNL1        0.0992
     19 C         140.3825  138.5425  160.2000 C.ar    1  UNL1       -0.0060
     20 C         140.0416  139.2270  158.9095 C.ar    1  UNL1       -0.0006
     21 C         141.1126  139.4847  157.8915 C.ar    1  UNL1        0.0294
     22 C         142.5246  139.0579  158.1639 C.ar    1  UNL1        0.1401
     23 F         143.5957  139.3156  157.1458 F       1  UNL1       -0.2042
     24 C         142.8655  138.3734  159.4544 C.ar    1  UNL1        0.0294
     25 C         141.7945  138.1158  160.4724 C.ar    1  UNL1       -0.0006
@<TRIPOS>BOND
     1     1     2    1
     2     2     3   ar
     3     3     4   ar
     4     4     5   ar
     5     5     6   ar
     6     6     7   ar
     7     7     8   ar
     8     8     9   ar
     9     9    10   ar
    10     7    11    1
    11    11    12    1
    12    12    13    1
    13    13    18    1
    14    18    19    1
    15    19    20   ar
    16    20    21   ar
    17    21    22   ar
    18    22    23    1
    19    22    24   ar
    20    24    25   ar
    21    13    14    1
    22    14    15    1
    23    10     2   ar
    24    25    19   ar
    25     9     4   ar
    26    15     6    1
    27     1    16    1
    28     1    17    1
