@<TRIPOS>MOLECULE
*****
 38 41 0 0 0
SMALL
GASTEIGER

@<TRIPOS>ATOM
      1 O         141.4394  139.3462  159.5648 O.2     1  UNL1       -0.2733
      2 C         142.7539  138.9925  158.9346 C.2     1  UNL1        0.2425
      3 N         144.0358  139.3039  159.6484 N.am    1  UNL1       -0.3032
      4 H         144.8985  139.0718  159.2348 H       1  UNL1        0.1495
      5 C         144.0033  139.9691  160.9925 C.3     1  UNL1        0.0889
      6 C         144.3534  141.3997  161.2769 C.3     1  UNL1        0.0383
      7 C         144.1815  141.6352  162.7483 C.3     1  UNL1        0.0738
      8 N         143.7252  140.3502  163.3733 N.3     1  UNL1       -0.2725
      9 C         143.6151  139.3205  162.2881 C.3     1  UNL1        0.0919
     10 C         143.4308  140.1330  164.8279 C.3     1  UNL1        0.0577
     11 C         143.7373  138.8105  165.4659 C.3     1  UNL1        0.0188
     12 C         143.4428  138.5933  166.9205 C.3     1  UNL1        0.0341
     13 C         142.8419  139.6987  167.7373 C.3     1  UNL1        0.1246
     14 O         142.9531  138.6312  168.7853 O.3     1  UNL1       -0.3811
     15 C         142.5354  141.0212  167.0994 C.3     1  UNL1        0.0341
     16 C         142.8298  141.2384  165.6447 C.3     1  UNL1        0.0188
     17 H         143.3371  137.8316  168.3929 H       1  UNL1        0.2107
     18 C         142.2795  140.4333  168.9180 C.ar    1  UNL1        0.1021
     19 C         142.8383  141.7704  169.3050 C.ar    1  UNL1        0.1159
     20 N         142.2760  142.5050  170.4858 N.ar    1  UNL1       -0.2394
     21 C         141.1548  141.9025  171.2795 C.ar    1  UNL1        0.1195
     22 C         140.5960  140.5653  170.8924 C.ar    1  UNL1        0.1192
     23 N         141.1584  139.8307  169.7117 N.ar    1  UNL1       -0.2427
     24 C         142.7864  138.3273  157.5906 C.3     1  UNL1        0.1759
     25 N         142.5232  136.8550  157.4758 N.am    1  UNL1       -0.2931
     26 C         143.3374  136.0187  156.5336 C.2     1  UNL1        0.2462
     27 O         144.4148  136.6547  155.7061 O.2     1  UNL1       -0.2701
     28 H         141.8161  136.4375  158.0189 H       1  UNL1        0.1502
     29 C         143.0742  134.5464  156.4189 C.ar    1  UNL1        0.0533
     30 C         141.9482  134.0504  155.5610 C.ar    1  UNL1        0.0045
     31 C         141.6850  132.5782  155.4463 C.ar    1  UNL1        0.0001
     32 C         142.5480  131.6019  156.1895 C.ar    1  UNL1        0.0039
     33 C         143.6740  132.0979  157.0473 C.ar    1  UNL1        0.0716
     34 C         143.9371  133.5701  157.1620 C.ar    1  UNL1        0.0084
     35 C         144.5370  131.1216  157.7904 C.3     1  UNL1        0.4186
     36 F         145.3999  130.1454  158.5336 F       1  UNL1       -0.1659
     37 F         145.5624  132.1944  158.0090 F       1  UNL1       -0.1659
     38 F         143.5116  130.0489  157.5719 F       1  UNL1       -0.1659
@<TRIPOS>BOND
     1     1     2    2
     2     2    24    1
     3    24    25    1
     4    25    26   am
     5    26    27    2
     6    26    29    1
     7    29    30   ar
     8    30    31   ar
     9    31    32   ar
    10    32    33   ar
    11    33    35    1
    12    35    36    1
    13    35    37    1
    14    35    38    1
    15    33    34   ar
    16     2     3   am
    17     5     3    1
    18     5     6    1
    19     6     7    1
    20     7     8    1
    21    10     8    1
    22    10    11    1
    23    11    12    1
    24    12    13    1
    25    13    14    1
    26    13    18    1
    27    18    19   ar
    28    19    20   ar
    29    20    21   ar
    30    21    22   ar
    31    22    23   ar
    32    13    15    1
    33    15    16    1
    34     8     9    1
    35    34    29   ar
    36     9     5    1
    37    16    10    1
    38    23    18   ar
    39    25    28    1
    40     3     4    1
    41    14    17    1
@<TRIPOS>MOLECULE
*****
 38 41 0 0 0
SMALL
GASTEIGER

@<TRIPOS>ATOM
      1 O         141.3278  140.7630  159.5183 O.2     1  UNL1       -0.2733
      2 C         141.1491  139.3162  159.1650 C.2     1  UNL1        0.2425
      3 N         140.2776  138.4389  160.0140 N.am    1  UNL1       -0.3032
      4 H         140.1604  137.4893  159.7821 H       1  UNL1        0.1495
      5 C         139.5848  139.0084  161.2164 C.3     1  UNL1        0.0889
      6 C         138.3085  139.7965  161.2077 C.3     1  UNL1        0.0383
      7 C         137.9815  140.1650  162.6244 C.3     1  UNL1        0.0738
      8 N         139.0557  139.6046  163.5089 N.3     1  UNL1       -0.2725
      9 C         140.0466  138.8898  162.6386 C.3     1  UNL1        0.0919
     10 C         139.1266  139.7359  165.0014 C.3     1  UNL1        0.0577
     11 C         138.1356  139.0142  165.8657 C.3     1  UNL1        0.0188
     12 C         138.2064  139.1456  167.3582 C.3     1  UNL1        0.0341
     13 C         139.2683  139.9986  167.9865 C.3     1  UNL1        0.1246
     14 O         138.5607  139.5148  169.2175 O.3     1  UNL1       -0.3811
     15 C         140.2593  140.7204  167.1222 C.3     1  UNL1        0.0341
     16 C         140.1885  140.5890  165.6297 C.3     1  UNL1        0.0188
     17 H         137.8269  138.9344  168.9615 H       1  UNL1        0.2107
     18 C         140.0844  140.6837  169.0423 C.ar    1  UNL1        0.1021
     19 C         139.9876  140.2386  170.4714 C.ar    1  UNL1        0.1159
     20 N         140.8037  140.9237  171.5272 N.ar    1  UNL1       -0.2394
     21 C         141.7167  142.0538  171.1538 C.ar    1  UNL1        0.1195
     22 C         141.8134  142.4989  169.7246 C.ar    1  UNL1        0.1192
     23 N         140.9973  141.8138  168.6689 N.ar    1  UNL1       -0.2427
     24 C         141.8419  138.7467  157.9627 C.3     1  UNL1        0.1759
     25 N         141.7741  137.2740  157.6855 N.am    1  UNL1       -0.2931
     26 C         142.8208  136.6227  156.8310 C.2     1  UNL1        0.2462
     27 O         143.9353  137.4440  156.2537 O.2     1  UNL1       -0.2701
     28 H         141.0426  136.7350  158.0644 H       1  UNL1        0.1502
     29 C         142.7530  135.1501  156.5538 C.ar    1  UNL1        0.0533
     30 C         141.7546  134.6175  155.5692 C.ar    1  UNL1        0.0045
     31 C         141.6868  133.1449  155.2920 C.ar    1  UNL1        0.0001
     32 C         142.6174  132.2049  155.9995 C.ar    1  UNL1        0.0039
     33 C         143.6158  132.7375  156.9841 C.ar    1  UNL1        0.0716
     34 C         143.6836  134.2101  157.2612 C.ar    1  UNL1        0.0084
     35 C         144.5464  131.7976  157.6915 C.3     1  UNL1        0.4186
     36 F         145.4770  130.8576  158.3990 F       1  UNL1       -0.1659
     37 F         143.8884  130.6340  157.0110 F       1  UNL1       -0.1659
     38 F         145.2043  132.9612  158.3721 F       1  UNL1       -0.1659
@<TRIPOS>BOND
     1     1     2    2
     2     2    24    1
     3    24    25    1
     4    25    26   am
     5    26    27    2
     6    26    29    1
     7    29    30   ar
     8    30    31   ar
     9    31    32   ar
    10    32    33   ar
    11    33    35    1
    12    35    36    1
    13    35    37    1
    14    35    38    1
    15    33    34   ar
    16     2     3   am
    17     5     3    1
    18     5     6    1
    19     6     7    1
    20     7     8    1
    21    10     8    1
    22    10    11    1
    23    11    12    1
    24    12    13    1
    25    13    14    1
    26    13    18    1
    27    18    19   ar
    28    19    20   ar
    29    20    21   ar
    30    21    22   ar
    31    22    23   ar
    32    13    15    1
    33    15    16    1
    34     8     9    1
    35    34    29   ar
    36     9     5    1
    37    16    10    1
    38    23    18   ar
    39    25    28    1
    40     3     4    1
    41    14    17    1
@<TRIPOS>MOLECULE
*****
 38 41 0 0 0
SMALL
GASTEIGER

@<TRIPOS>ATOM
      1 O         139.9200  140.8365  158.7137 O.2     1  UNL1       -0.2733
      2 C         138.5081  140.3481  158.5806 C.2     1  UNL1        0.2425
      3 N         137.8693  139.5855  159.7033 N.am    1  UNL1       -0.3032
      4 H         136.9425  139.2649  159.6159 H       1  UNL1        0.1495
      5 C         138.6425  139.3113  160.9591 C.3     1  UNL1        0.0889
      6 C         139.9665  138.6115  161.0442 C.3     1  UNL1        0.0383
      7 C         140.3697  138.5565  162.4880 C.3     1  UNL1        0.0738
      8 N         139.2948  139.2223  163.2952 N.3     1  UNL1       -0.2725
      9 C         138.2274  139.6887  162.3502 C.3     1  UNL1        0.0919
     10 C         139.2886  139.3918  164.7855 C.3     1  UNL1        0.0577
     11 C         138.1387  138.8696  165.5949 C.3     1  UNL1        0.0188
     12 C         138.1324  139.0391  167.0852 C.3     1  UNL1        0.0341
     13 C         139.2760  139.7308  167.7662 C.3     1  UNL1        0.1246
     14 O         138.4200  139.4101  168.9556 O.3     1  UNL1       -0.3811
     15 C         140.4260  140.2529  166.9569 C.3     1  UNL1        0.0341
     16 C         140.4322  140.0834  165.4665 C.3     1  UNL1        0.0188
     17 H         137.6196  138.9473  168.6625 H       1  UNL1        0.2107
     18 C         140.1224  140.3110  168.8603 C.ar    1  UNL1        0.1021
     19 C         139.4789  141.0621  169.9880 C.ar    1  UNL1        0.1159
     20 N         140.3252  141.6424  171.0821 N.ar    1  UNL1       -0.2394
     21 C         141.8152  141.4716  171.0484 C.ar    1  UNL1        0.1195
     22 C         142.4586  140.7205  169.9206 C.ar    1  UNL1        0.1192
     23 N         141.6122  140.1402  168.8266 N.ar    1  UNL1       -0.2427
     24 C         137.7348  140.6223  157.3249 C.3     1  UNL1        0.1759
     25 N         136.2350  140.6096  157.3497 N.am    1  UNL1       -0.2931
     26 C         135.4636  140.6094  156.0633 C.2     1  UNL1        0.2462
     27 O         136.1919  140.6218  154.7520 O.2     1  UNL1       -0.2701
     28 H         135.7570  140.6014  158.2103 H       1  UNL1        0.1502
     29 C         133.9638  140.5967  156.0881 C.ar    1  UNL1        0.0533
     30 C         133.1910  141.5075  155.1809 C.ar    1  UNL1        0.0045
     31 C         131.6913  141.4948  155.2058 C.ar    1  UNL1        0.0001
     32 C         130.9644  140.5713  156.1378 C.ar    1  UNL1        0.0039
     33 C         131.7373  139.6604  157.0450 C.ar    1  UNL1        0.0716
     34 C         133.2370  139.6731  157.0202 C.ar    1  UNL1        0.0084
     35 C         131.0104  138.7369  157.9771 C.3     1  UNL1        0.4186
     36 F         130.2835  137.8134  158.9092 F       1  UNL1       -0.1659
     37 F         132.3193  138.3006  158.5656 F       1  UNL1       -0.1659
     38 F         129.7014  139.1732  157.3886 F       1  UNL1       -0.1659
@<TRIPOS>BOND
     1     1     2    2
     2     2    24    1
     3    24    25    1
     4    25    26   am
     5    26    27    2
     6    26    29    1
     7    29    30   ar
     8    30    31   ar
     9    31    32   ar
    10    32    33   ar
    11    33    35    1
    12    35    36    1
    13    35    37    1
    14    35    38    1
    15    33    34   ar
    16     2     3   am
    17     5     3    1
    18     5     6    1
    19     6     7    1
    20     7     8    1
    21    10     8    1
    22    10    11    1
    23    11    12    1
    24    12    13    1
    25    13    14    1
    26    13    18    1
    27    18    19   ar
    28    19    20   ar
    29    20    21   ar
    30    21    22   ar
    31    22    23   ar
    32    13    15    1
    33    15    16    1
    34     8     9    1
    35    34    29   ar
    36     9     5    1
    37    16    10    1
    38    23    18   ar
    39    25    28    1
    40     3     4    1
    41    14    17    1
@<TRIPOS>MOLECULE
*****
 38 41 0 0 0
SMALL
GASTEIGER

@<TRIPOS>ATOM
      1 O         141.8312  145.7178  159.1971 O.2     1  UNL1       -0.2733
      2 C         140.5451  145.1617  158.6617 C.2     1  UNL1        0.2425
      3 N         139.5539  144.5323  159.5952 N.am    1  UNL1       -0.3032
      4 H         138.7098  144.1674  159.2438 H       1  UNL1        0.1495
      5 C         139.8488  144.4590  161.0642 C.3     1  UNL1        0.0889
      6 C         139.8957  145.6198  162.0130 C.3     1  UNL1        0.0383
      7 C         140.2245  145.0902  163.3774 C.3     1  UNL1        0.0738
      8 N         140.3808  143.6021  163.2717 N.3     1  UNL1       -0.2725
      9 C         140.1486  143.2120  161.8421 C.3     1  UNL1        0.0919
     10 C         140.7112  142.6681  164.3980 C.3     1  UNL1        0.0577
     11 C         141.6888  141.5508  164.1834 C.3     1  UNL1        0.0188
     12 C         142.0192  140.6168  165.3096 C.3     1  UNL1        0.0341
     13 C         141.3721  140.8001  166.6504 C.3     1  UNL1        0.1246
     14 O         142.2282  139.6020  166.9360 O.3     1  UNL1       -0.3811
     15 C         140.3946  141.9174  166.8650 C.3     1  UNL1        0.0341
     16 C         140.0641  142.8514  165.7388 C.3     1  UNL1        0.0188
     17 H         142.7213  139.3590  166.1368 H       1  UNL1        0.2107
     18 C         141.0224  140.5673  168.0904 C.ar    1  UNL1        0.1021
     19 C         139.6243  140.1776  168.4691 C.ar    1  UNL1        0.1159
     20 N         139.2745  139.9447  169.9090 N.ar    1  UNL1       -0.2394
     21 C         140.3229  140.1016  170.9704 C.ar    1  UNL1        0.1195
     22 C         141.7211  140.4914  170.5916 C.ar    1  UNL1        0.1192
     23 N         142.0707  140.7242  169.1516 N.ar    1  UNL1       -0.2427
     24 C         140.2501  145.2350  157.1929 C.3     1  UNL1        0.1759
     25 N         140.4178  146.5319  156.4580 N.am    1  UNL1       -0.2931
     26 C         139.3545  146.9989  155.5087 C.2     1  UNL1        0.2462
     27 O         138.1235  146.1692  155.2942 O.2     1  UNL1       -0.2701
     28 H         141.2258  147.0765  156.5987 H       1  UNL1        0.1502
     29 C         139.5223  148.2958  154.7738 C.ar    1  UNL1        0.0533
     30 C         140.2334  148.3231  153.4534 C.ar    1  UNL1        0.0045
     31 C         140.4011  149.6200  152.7185 C.ar    1  UNL1        0.0001
     32 C         139.8577  150.8895  153.3041 C.ar    1  UNL1        0.0039
     33 C         139.1466  150.8623  154.6245 C.ar    1  UNL1        0.0716
     34 C         138.9789  149.5654  155.3594 C.ar    1  UNL1        0.0084
     35 C         138.6032  152.1318  155.2101 C.3     1  UNL1        0.4186
     36 F         138.0598  153.4014  155.7957 F       1  UNL1       -0.1659
     37 F         138.1105  152.5459  153.8552 F       1  UNL1       -0.1659
     38 F         139.0959  151.7177  156.5651 F       1  UNL1       -0.1659
@<TRIPOS>BOND
     1     1     2    2
     2     2    24    1
     3    24    25    1
     4    25    26   am
     5    26    27    2
     6    26    29    1
     7    29    30   ar
     8    30    31   ar
     9    31    32   ar
    10    32    33   ar
    11    33    35    1
    12    35    36    1
    13    35    37    1
    14    35    38    1
    15    33    34   ar
    16     2     3   am
    17     5     3    1
    18     5     6    1
    19     6     7    1
    20     7     8    1
    21    10     8    1
    22    10    11    1
    23    11    12    1
    24    12    13    1
    25    13    14    1
    26    13    18    1
    27    18    19   ar
    28    19    20   ar
    29    20    21   ar
    30    21    22   ar
    31    22    23   ar
    32    13    15    1
    33    15    16    1
    34     8     9    1
    35    34    29   ar
    36     9     5    1
    37    16    10    1
    38    23    18   ar
    39    25    28    1
    40     3     4    1
    41    14    17    1
@<TRIPOS>MOLECULE
*****
 38 41 0 0 0
SMALL
GASTEIGER

@<TRIPOS>ATOM
      1 O         141.9350  140.5789  159.2084 O.2     1  UNL1       -0.2733
      2 C         142.3616  139.2082  158.7736 C.2     1  UNL1        0.2425
      3 N         142.1653  138.0361  159.6889 N.am    1  UNL1       -0.3032
      4 H         142.4453  137.1364  159.4036 H       1  UNL1        0.1495
      5 C         141.5423  138.2348  161.0389 C.3     1  UNL1        0.0889
      6 C         140.0795  138.1409  161.3574 C.3     1  UNL1        0.0383
      7 C         139.9060  138.4103  162.8228 C.3     1  UNL1        0.0738
      8 N         141.2615  138.6708  163.4100 N.3     1  UNL1       -0.2725
      9 C         142.2728  138.5623  162.3074 C.3     1  UNL1        0.0919
     10 C         141.5543  138.9847  164.8472 C.3     1  UNL1        0.0577
     11 C         142.7689  138.4044  165.5092 C.3     1  UNL1        0.0188
     12 C         143.0617  138.7182  166.9465 C.3     1  UNL1        0.0341
     13 C         142.1400  139.6124  167.7217 C.3     1  UNL1        0.1246
     14 O         143.1571  139.3056  168.7807 O.3     1  UNL1       -0.3811
     15 C         140.9254  140.1926  167.0597 C.3     1  UNL1        0.0341
     16 C         140.6326  139.8788  165.6225 C.3     1  UNL1        0.0188
     17 H         143.8376  138.7189  168.4152 H       1  UNL1        0.2107
     18 C         141.5715  140.3999  168.8648 C.ar    1  UNL1        0.1021
     19 C         140.1236  140.2550  169.2288 C.ar    1  UNL1        0.1159
     20 N         139.5552  141.0426  170.3719 N.ar    1  UNL1       -0.2394
     21 C         140.4347  141.9751  171.1510 C.ar    1  UNL1        0.1195
     22 C         141.8827  142.1200  170.7869 C.ar    1  UNL1        0.1192
     23 N         142.4510  141.3324  169.6438 N.ar    1  UNL1       -0.2427
     24 C         142.9845  139.0094  157.4237 C.3     1  UNL1        0.1759
     25 N         143.3828  137.6341  156.9766 N.am    1  UNL1       -0.2931
     26 C         142.3296  136.6211  156.6382 C.2     1  UNL1        0.2462
     27 O         140.8780  136.9834  156.7469 O.2     1  UNL1       -0.2701
     28 H         144.3355  137.3963  156.9052 H       1  UNL1        0.1502
     29 C         142.7278  135.2458  156.1910 C.ar    1  UNL1        0.0533
     30 C         142.2910  134.7375  154.8491 C.ar    1  UNL1        0.0045
     31 C         142.6893  133.3622  154.4020 C.ar    1  UNL1        0.0001
     32 C         143.5244  132.4952  155.2969 C.ar    1  UNL1        0.0039
     33 C         143.9612  133.0034  156.6389 C.ar    1  UNL1        0.0716
     34 C         143.5629  134.3787  157.0859 C.ar    1  UNL1        0.0084
     35 C         144.7963  132.1363  157.5337 C.3     1  UNL1        0.4186
     36 F         145.6314  131.2692  158.4286 F       1  UNL1       -0.1659
     37 F         144.5399  130.9625  156.6356 F       1  UNL1       -0.1659
     38 F         145.0526  133.3101  158.4318 F       1  UNL1       -0.1659
@<TRIPOS>BOND
     1     1     2    2
     2     2    24    1
     3    24    25    1
     4    25    26   am
     5    26    27    2
     6    26    29    1
     7    29    30   ar
     8    30    31   ar
     9    31    32   ar
    10    32    33   ar
    11    33    35    1
    12    35    36    1
    13    35    37    1
    14    35    38    1
    15    33    34   ar
    16     2     3   am
    17     5     3    1
    18     5     6    1
    19     6     7    1
    20     7     8    1
    21    10     8    1
    22    10    11    1
    23    11    12    1
    24    12    13    1
    25    13    14    1
    26    13    18    1
    27    18    19   ar
    28    19    20   ar
    29    20    21   ar
    30    21    22   ar
    31    22    23   ar
    32    13    15    1
    33    15    16    1
    34     8     9    1
    35    34    29   ar
    36     9     5    1
    37    16    10    1
    38    23    18   ar
    39    25    28    1
    40     3     4    1
    41    14    17    1
@<TRIPOS>MOLECULE
*****
 38 41 0 0 0
SMALL
GASTEIGER

@<TRIPOS>ATOM
      1 O         138.1258  142.4818  161.1259 O.2     1  UNL1       -0.2733
      2 C         138.7975  141.7828  159.9813 C.2     1  UNL1        0.2425
      3 N         139.3243  140.3896  160.1585 N.am    1  UNL1       -0.3032
      4 H         139.7652  139.9308  159.4072 H       1  UNL1        0.1495
      5 C         139.1794  139.6953  161.4803 C.3     1  UNL1        0.0889
      6 C         138.8842  138.2388  161.6835 C.3     1  UNL1        0.0383
      7 C         138.8265  137.9791  163.1597 C.3     1  UNL1        0.0738
      8 N         139.0861  139.2752  163.8689 N.3     1  UNL1       -0.2725
      9 C         139.3042  140.3358  162.8309 C.3     1  UNL1        0.0919
     10 C         139.1214  139.4753  165.3550 C.3     1  UNL1        0.0577
     11 C         138.0169  138.9310  166.2115 C.3     1  UNL1        0.0188
     12 C         138.0522  139.1312  167.6977 C.3     1  UNL1        0.0341
     13 C         139.1920  139.8757  168.3273 C.3     1  UNL1        0.1246
     14 O         138.3861  139.5507  169.5500 O.3     1  UNL1       -0.3811
     15 C         140.2966  140.4200  167.4708 C.3     1  UNL1        0.0341
     16 C         140.2613  140.2199  165.9847 C.3     1  UNL1        0.0188
     17 H         137.5934  139.0547  169.2923 H       1  UNL1        0.2107
     18 C         140.0520  140.5073  169.3816 C.ar    1  UNL1        0.1021
     19 C         139.5890  141.7506  170.0815 C.ar    1  UNL1        0.1159
     20 N         140.4489  142.3822  171.1358 N.ar    1  UNL1       -0.2394
     21 C         141.7720  141.7706  171.4902 C.ar    1  UNL1        0.1195
     22 C         142.2350  140.5273  170.7902 C.ar    1  UNL1        0.1192
     23 N         141.3750  139.8957  169.7359 N.ar    1  UNL1       -0.2427
     24 C         138.9425  142.4770  158.6596 C.3     1  UNL1        0.1759
     25 N         137.8068  142.4689  157.6796 N.am    1  UNL1       -0.2931
     26 C         137.4246  141.1955  156.9850 C.2     1  UNL1        0.2462
     27 O         138.1780  139.9302  157.2704 O.2     1  UNL1       -0.2701
     28 H         137.3123  143.2993  157.4923 H       1  UNL1        0.1502
     29 C         136.2889  141.1874  156.0051 C.ar    1  UNL1        0.0533
     30 C         136.5229  141.6013  154.5824 C.ar    1  UNL1        0.0045
     31 C         135.3873  141.5932  153.6026 C.ar    1  UNL1        0.0001
     32 C         134.0177  141.1712  154.0453 C.ar    1  UNL1        0.0039
     33 C         133.7836  140.7573  155.4679 C.ar    1  UNL1        0.0716
     34 C         134.9193  140.7654  156.4478 C.ar    1  UNL1        0.0084
     35 C         132.4140  140.3354  155.9106 C.3     1  UNL1        0.4186
     36 F         131.0444  139.9134  156.3534 F       1  UNL1       -0.1659
     37 F         132.8923  138.9196  156.0410 F       1  UNL1       -0.1659
     38 F         131.9357  141.7511  155.7803 F       1  UNL1       -0.1659
@<TRIPOS>BOND
     1     1     2    2
     2     2    24    1
     3    24    25    1
     4    25    26   am
     5    26    27    2
     6    26    29    1
     7    29    30   ar
     8    30    31   ar
     9    31    32   ar
    10    32    33   ar
    11    33    35    1
    12    35    36    1
    13    35    37    1
    14    35    38    1
    15    33    34   ar
    16     2     3   am
    17     5     3    1
    18     5     6    1
    19     6     7    1
    20     7     8    1
    21    10     8    1
    22    10    11    1
    23    11    12    1
    24    12    13    1
    25    13    14    1
    26    13    18    1
    27    18    19   ar
    28    19    20   ar
    29    20    21   ar
    30    21    22   ar
    31    22    23   ar
    32    13    15    1
    33    15    16    1
    34     8     9    1
    35    34    29   ar
    36     9     5    1
    37    16    10    1
    38    23    18   ar
    39    25    28    1
    40     3     4    1
    41    14    17    1
@<TRIPOS>MOLECULE
*****
 38 41 0 0 0
SMALL
GASTEIGER

@<TRIPOS>ATOM
      1 O         143.4316  138.3774  159.6740 O.2     1  UNL1       -0.2733
      2 C         142.9173  139.2651  158.5796 C.2     1  UNL1        0.2425
      3 N         142.8940  140.7528  158.7693 N.am    1  UNL1       -0.3032
      4 H         142.5564  141.3354  158.0510 H       1  UNL1        0.1495
      5 C         143.3851  141.3530  160.0533 C.3     1  UNL1        0.0889
      6 C         144.5132  142.3315  160.1945 C.3     1  UNL1        0.0383
      7 C         144.6595  142.6633  161.6500 C.3     1  UNL1        0.0738
      8 N         143.6219  141.8898  162.4084 N.3     1  UNL1       -0.2725
      9 C         142.8343  141.0800  161.4216 C.3     1  UNL1        0.0919
     10 C         143.4092  141.9207  163.8929 C.3     1  UNL1        0.0577
     11 C         144.1743  142.8939  164.7400 C.3     1  UNL1        0.0188
     12 C         143.9616  142.9249  166.2246 C.3     1  UNL1        0.0341
     13 C         142.9839  141.9826  166.8620 C.3     1  UNL1        0.1246
     14 O         143.4678  142.7171  168.0770 O.3     1  UNL1       -0.3811
     15 C         142.2189  141.0094  166.0149 C.3     1  UNL1        0.0341
     16 C         142.4315  140.9785  164.5304 C.3     1  UNL1        0.0188
     17 H         144.1254  143.3799  167.8137 H       1  UNL1        0.2107
     18 C         142.1743  141.2954  167.9214 C.ar    1  UNL1        0.1021
     19 C         142.6695  140.0188  168.5337 C.ar    1  UNL1        0.1159
     20 N         141.8599  139.3317  169.5932 N.ar    1  UNL1       -0.2394
     21 C         140.5550  139.9212  170.0402 C.ar    1  UNL1        0.1195
     22 C         140.0598  141.1979  169.4278 C.ar    1  UNL1        0.1192
     23 N         140.8695  141.8849  168.3684 N.ar    1  UNL1       -0.2427
     24 C         142.4263  138.6649  157.2957 C.3     1  UNL1        0.1759
     25 N         142.1886  137.1869  157.2012 N.am    1  UNL1       -0.2931
     26 C         143.1557  136.3180  156.4531 C.2     1  UNL1        0.2462
     27 O         144.3606  136.9271  155.7995 O.2     1  UNL1       -0.2701
     28 H         141.3978  136.7871  157.6302 H       1  UNL1        0.1502
     29 C         142.9180  134.8399  156.3587 C.ar    1  UNL1        0.0533
     30 C         141.7775  134.3146  155.5382 C.ar    1  UNL1        0.0045
     31 C         141.5398  132.8366  155.4438 C.ar    1  UNL1        0.0001
     32 C         142.4427  131.8839  156.1699 C.ar    1  UNL1        0.0039
     33 C         143.5832  132.4092  156.9904 C.ar    1  UNL1        0.0716
     34 C         143.8208  133.8872  157.0848 C.ar    1  UNL1        0.0084
     35 C         144.4861  131.4565  157.7165 C.3     1  UNL1        0.4186
     36 F         145.3889  130.5038  158.4425 F       1  UNL1       -0.1659
     37 F         143.4197  130.4030  157.6602 F       1  UNL1       -0.1659
     38 F         145.5524  132.5099  157.7727 F       1  UNL1       -0.1659
@<TRIPOS>BOND
     1     1     2    2
     2     2    24    1
     3    24    25    1
     4    25    26   am
     5    26    27    2
     6    26    29    1
     7    29    30   ar
     8    30    31   ar
     9    31    32   ar
    10    32    33   ar
    11    33    35    1
    12    35    36    1
    13    35    37    1
    14    35    38    1
    15    33    34   ar
    16     2     3   am
    17     5     3    1
    18     5     6    1
    19     6     7    1
    20     7     8    1
    21    10     8    1
    22    10    11    1
    23    11    12    1
    24    12    13    1
    25    13    14    1
    26    13    18    1
    27    18    19   ar
    28    19    20   ar
    29    20    21   ar
    30    21    22   ar
    31    22    23   ar
    32    13    15    1
    33    15    16    1
    34     8     9    1
    35    34    29   ar
    36     9     5    1
    37    16    10    1
    38    23    18   ar
    39    25    28    1
    40     3     4    1
    41    14    17    1
@<TRIPOS>MOLECULE
*****
 38 41 0 0 0
SMALL
GASTEIGER

@<TRIPOS>ATOM
      1 O         142.9133  144.3510  161.0785 O.2     1  UNL1       -0.2733
      2 C         141.7841  143.7745  161.8800 C.2     1  UNL1        0.2425
      3 N         140.9808  142.6330  161.3308 N.am    1  UNL1       -0.3032
      4 H         140.2396  142.2546  161.8569 H       1  UNL1        0.1495
      5 C         141.3067  142.0679  159.9800 C.3     1  UNL1        0.0889
      6 C         141.1834  142.7879  158.6700 C.3     1  UNL1        0.0383
      7 C         141.6137  141.8487  157.5825 C.3     1  UNL1        0.0738
      8 N         142.0029  140.5481  158.2205 N.3     1  UNL1       -0.2725
      9 C         141.8132  140.6836  159.7022 C.3     1  UNL1        0.0919
     10 C         142.4954  139.3265  157.5027 C.3     1  UNL1        0.0577
     11 C         143.5400  139.4547  156.4339 C.3     1  UNL1        0.0188
     12 C         144.0324  138.2332  155.7161 C.3     1  UNL1        0.0341
     13 C         143.4804  136.8833  156.0673 C.3     1  UNL1        0.1246
     14 O         144.4502  136.4961  154.9904 O.3     1  UNL1       -0.3811
     15 C         142.4359  136.7551  157.1361 C.3     1  UNL1        0.0341
     16 C         141.9434  137.9767  157.8539 C.3     1  UNL1        0.0188
     17 H         144.8967  137.2899  154.6567 H       1  UNL1        0.2107
     18 C         143.2652  135.3990  156.0444 C.ar    1  UNL1        0.1021
     19 C         143.2130  134.6288  157.3305 C.ar    1  UNL1        0.1159
     20 N         142.9978  133.1445  157.3076 N.ar    1  UNL1       -0.2394
     21 C         142.8348  132.4304  155.9986 C.ar    1  UNL1        0.1195
     22 C         142.8869  133.2007  154.7124 C.ar    1  UNL1        0.1192
     23 N         143.1022  134.6850  154.7354 N.ar    1  UNL1       -0.2427
     24 C         141.4581  144.3395  163.2307 C.3     1  UNL1        0.1759
     25 N         141.2892  143.4230  164.4062 N.am    1  UNL1       -0.2931
     26 C         139.9847  142.7156  164.6243 C.2     1  UNL1        0.2462
     27 O         138.8490  142.9244  163.6669 O.2     1  UNL1       -0.2701
     28 H         142.0346  143.2859  165.0346 H       1  UNL1        0.1502
     29 C         139.8158  141.7991  165.7998 C.ar    1  UNL1        0.0533
     30 C         140.4016  142.1698  167.1300 C.ar    1  UNL1        0.0045
     31 C         140.2326  141.2533  168.3054 C.ar    1  UNL1        0.0001
     32 C         139.4780  139.9663  168.1506 C.ar    1  UNL1        0.0039
     33 C         138.8922  139.5957  166.8204 C.ar    1  UNL1        0.0716
     34 C         139.0611  140.5121  165.6450 C.ar    1  UNL1        0.0084
     35 C         138.1375  138.3086  166.6656 C.3     1  UNL1        0.4186
     36 F         137.3828  137.0216  166.5108 F       1  UNL1       -0.1659
     37 F         138.9663  137.9672  165.4629 F       1  UNL1       -0.1659
     38 F         137.3086  138.6500  167.8683 F       1  UNL1       -0.1659
@<TRIPOS>BOND
     1     1     2    2
     2     2    24    1
     3    24    25    1
     4    25    26   am
     5    26    27    2
     6    26    29    1
     7    29    30   ar
     8    30    31   ar
     9    31    32   ar
    10    32    33   ar
    11    33    35    1
    12    35    36    1
    13    35    37    1
    14    35    38    1
    15    33    34   ar
    16     2     3   am
    17     5     3    1
    18     5     6    1
    19     6     7    1
    20     7     8    1
    21    10     8    1
    22    10    11    1
    23    11    12    1
    24    12    13    1
    25    13    14    1
    26    13    18    1
    27    18    19   ar
    28    19    20   ar
    29    20    21   ar
    30    21    22   ar
    31    22    23   ar
    32    13    15    1
    33    15    16    1
    34     8     9    1
    35    34    29   ar
    36     9     5    1
    37    16    10    1
    38    23    18   ar
    39    25    28    1
    40     3     4    1
    41    14    17    1
@<TRIPOS>MOLECULE
*****
 38 41 0 0 0
SMALL
GASTEIGER

@<TRIPOS>ATOM
      1 O         143.7286  138.4957  159.5953 O.2     1  UNL1       -0.2733
      2 C         142.5050  138.1209  158.8127 C.2     1  UNL1        0.2425
      3 N         141.1428  138.4508  159.3471 N.am    1  UNL1       -0.3032
      4 H         140.3397  138.2048  158.8335 H       1  UNL1        0.1495
      5 C         141.0041  139.1555  160.6640 C.3     1  UNL1        0.0889
      6 C         140.2752  140.4447  160.9017 C.3     1  UNL1        0.0383
      7 C         140.3907  140.7806  162.3590 C.3     1  UNL1        0.0738
      8 N         141.1910  139.6990  163.0221 N.3     1  UNL1       -0.2725
      9 C         141.5702  138.6946  161.9745 C.3     1  UNL1        0.0919
     10 C         141.5493  139.6333  164.4772 C.3     1  UNL1        0.0577
     11 C         142.6311  138.7040  164.9419 C.3     1  UNL1        0.0188
     12 C         142.9894  138.6383  166.3970 C.3     1  UNL1        0.0341
     13 C         142.2659  139.5019  167.3873 C.3     1  UNL1        0.1246
     14 O         143.2104  138.7862  168.3070 O.3     1  UNL1       -0.3811
     15 C         141.1840  140.4312  166.9225 C.3     1  UNL1        0.0341
     16 C         140.8258  140.4969  165.4675 C.3     1  UNL1        0.0188
     17 H         143.7603  138.1743  167.7932 H       1  UNL1        0.2107
     18 C         141.8704  140.1170  168.6970 C.ar    1  UNL1        0.1021
     19 C         142.7577  141.1386  169.3442 C.ar    1  UNL1        0.1159
     20 N         142.3622  141.7536  170.6539 N.ar    1  UNL1       -0.2394
     21 C         141.0793  141.3470  171.3164 C.ar    1  UNL1        0.1195
     22 C         140.1919  140.3254  170.6691 C.ar    1  UNL1        0.1192
     23 N         140.5875  139.7104  169.3595 N.ar    1  UNL1       -0.2427
     24 C         142.6435  137.4162  157.4959 C.3     1  UNL1        0.1759
     25 N         143.3549  136.0976  157.4220 N.am    1  UNL1       -0.2931
     26 C         142.8163  135.0028  156.5495 C.2     1  UNL1        0.2462
     27 O         141.5664  135.2265  155.7509 O.2     1  UNL1       -0.2701
     28 H         144.1752  135.9508  157.9461 H       1  UNL1        0.1502
     29 C         143.5276  133.6842  156.4757 C.ar    1  UNL1        0.0533
     30 C         144.3795  133.2263  157.6222 C.ar    1  UNL1        0.0045
     31 C         145.0908  131.9078  157.5483 C.ar    1  UNL1        0.0001
     32 C         144.9501  131.0471  156.3278 C.ar    1  UNL1        0.0039
     33 C         144.0982  131.5050  155.1813 C.ar    1  UNL1        0.0716
     34 C         143.3869  132.8235  155.2552 C.ar    1  UNL1        0.0084
     35 C         143.9575  130.6443  153.9609 C.3     1  UNL1        0.4186
     36 F         143.8169  129.7836  152.7404 F       1  UNL1       -0.1659
     37 F         144.9635  129.6836  154.5224 F       1  UNL1       -0.1659
     38 F         142.9516  131.6049  153.3993 F       1  UNL1       -0.1659
@<TRIPOS>BOND
     1     1     2    2
     2     2    24    1
     3    24    25    1
     4    25    26   am
     5    26    27    2
     6    26    29    1
     7    29    30   ar
     8    30    31   ar
     9    31    32   ar
    10    32    33   ar
    11    33    35    1
    12    35    36    1
    13    35    37    1
    14    35    38    1
    15    33    34   ar
    16     2     3   am
    17     5     3    1
    18     5     6    1
    19     6     7    1
    20     7     8    1
    21    10     8    1
    22    10    11    1
    23    11    12    1
    24    12    13    1
    25    13    14    1
    26    13    18    1
    27    18    19   ar
    28    19    20   ar
    29    20    21   ar
    30    21    22   ar
    31    22    23   ar
    32    13    15    1
    33    15    16    1
    34     8     9    1
    35    34    29   ar
    36     9     5    1
    37    16    10    1
    38    23    18   ar
    39    25    28    1
    40     3     4    1
    41    14    17    1
