@<TRIPOS>MOLECULE
*****
 51 58 0 0 0
SMALL
GASTEIGER

@<TRIPOS>ATOM
      1 C         139.0860  142.7946  156.8400 C.ar    1  UNL1        0.0192
      2 C         139.8444  142.5562  158.1121 C.ar    1  UNL1        0.0013
      3 C         139.3242  141.5779  159.1233 C.ar    1  UNL1       -0.0029
      4 C         138.0457  140.8381  158.8624 C.ar    1  UNL1       -0.0061
      5 C         137.2873  141.0765  157.5904 C.ar    1  UNL1       -0.0029
      6 C         137.8075  142.0547  156.5792 C.ar    1  UNL1        0.0013
      7 C         139.8241  148.6110  153.9463 C.ar    1  UNL1        0.1335
      8 C         140.7554  148.1484  152.8652 C.ar    1  UNL1        0.0360
      9 C         141.1666  146.7076  152.7954 C.ar    1  UNL1        0.0251
     10 C         140.6464  145.7293  153.8065 C.ar    1  UNL1        0.1171
     11 N         141.0576  144.2884  153.7366 N.ar    1  UNL1       -0.2407
     12 C         140.5375  143.3102  154.7478 C.ar    1  UNL1        0.0989
     13 C         139.6061  143.7728  155.8289 C.ar    1  UNL1        0.1005
     14 N         139.1950  145.2137  155.8987 N.ar    1  UNL1       -0.2237
     15 C         139.7151  146.1919  154.8876 C.ar    1  UNL1        0.1814
     16 N         139.3040  147.6327  154.9574 N.ar    1  UNL1       -0.2104
     17 C         138.1794  154.3744  154.2260 C.3     1  UNL1        0.0897
     18 N         138.5906  152.9336  154.1560 N.3     1  UNL1       -0.2686
     19 C         139.1479  152.3737  152.8809 C.3     1  UNL1        0.0939
     20 C         139.5590  150.9328  152.8110 C.3     1  UNL1        0.1095
     21 N         139.4130  150.0519  154.0162 N.pl3   1  UNL1       -0.2903
     22 C         138.8557  150.6118  155.2913 C.3     1  UNL1        0.1095
     23 C         138.4445  152.0526  155.3613 C.3     1  UNL1        0.0939
     24 C         140.9486  141.8694  154.6780 C.ar    1  UNL1        0.0191
     25 C         142.1395  141.3907  155.4544 C.ar    1  UNL1        0.0015
     26 C         142.5507  139.9499  155.3845 C.ar    1  UNL1        0.0000
     27 C         141.7710  138.9876  154.5383 C.ar    1  UNL1        0.0000
     28 C         140.5801  139.4662  153.7619 C.ar    1  UNL1        0.0000
     29 C         140.1689  140.9071  153.8317 C.ar    1  UNL1        0.0015
     30 C         137.5255  139.8598  159.8736 C.3     1  UNL1        0.0991
     31 N         137.9400  139.9749  161.3106 N.3     1  UNL1       -0.2689
     32 C         137.6625  141.2368  162.0725 C.3     1  UNL1        0.0728
     33 C         138.0770  141.3518  163.5096 C.3     1  UNL1        0.0249
     34 C         138.7689  140.2049  164.1847 C.3     1  UNL1        0.0613
     35 C         139.0463  138.9429  163.4227 C.3     1  UNL1        0.0249
     36 C         138.6319  138.8279  161.9857 C.3     1  UNL1        0.0728
     37 C         139.1833  140.3199  165.6216 C.ar    1  UNL1        0.1396
     38 N         138.7006  139.4577  166.7502 N.ar    1  UNL1       -0.1336
     39 N         139.3722  139.9221  168.0084 N.ar    1  UNL1       -0.1293
     40 C         140.2700  141.0715  167.6575 C.ar    1  UNL1        0.1644
     41 N         140.1533  141.3172  166.1824 N.ar    1  UNL1       -0.3245
     42 H         140.6296  142.0113  165.6719 H       1  UNL1        0.1686
     43 C         141.1331  141.8400  168.6138 C.ar    1  UNL1        0.0550
     44 C         142.5694  141.4527  168.8053 C.ar    1  UNL1        0.0075
     45 C         143.4325  142.2212  169.7616 C.ar    1  UNL1        0.0340
     46 C         142.8591  143.3772  170.5264 C.ar    1  UNL1        0.1254
     47 N         143.7221  144.1457  171.4826 N.pl3   1  UNL1       -0.3426
     48 N         141.4226  143.7646  170.3349 N.ar    1  UNL1       -0.2295
     49 C         140.5597  142.9960  169.3786 C.ar    1  UNL1        0.1033
     50 H         144.6648  143.8915  171.6083 H       1  UNL1        0.1437
     51 H         143.3458  144.9044  171.9846 H       1  UNL1        0.1437
@<TRIPOS>BOND
     1    17    18    1
     2    18    19    1
     3    19    20    1
     4    20    21    1
     5    21     7    1
     6     7     8   ar
     7     8     9   ar
     8     9    10   ar
     9    10    11   ar
    10    11    12   ar
    11    12    24    1
    12    24    25   ar
    13    25    26   ar
    14    26    27   ar
    15    27    28   ar
    16    28    29   ar
    17    12    13   ar
    18    13     1    1
    19     1     2   ar
    20     2     3   ar
    21     3     4   ar
    22     4    30    1
    23    30    31    1
    24    31    32    1
    25    32    33    1
    26    33    34    1
    27    34    37    1
    28    37    38   ar
    29    38    39   ar
    30    39    40   ar
    31    40    43    1
    32    43    44   ar
    33    44    45   ar
    34    45    46   ar
    35    46    47    1
    36    46    48   ar
    37    48    49   ar
    38    40    41   ar
    39    34    35    1
    40    35    36    1
    41     4     5   ar
    42     5     6   ar
    43    13    14   ar
    44    14    15   ar
    45    15    16   ar
    46    21    22    1
    47    22    23    1
    48    23    18    1
    49    16     7   ar
    50    15    10   ar
    51    29    24   ar
    52     6     1   ar
    53    36    31    1
    54    41    37   ar
    55    49    43   ar
    56    47    50    1
    57    47    51    1
    58    41    42    1
@<TRIPOS>MOLECULE
*****
 51 58 0 0 0
SMALL
GASTEIGER

@<TRIPOS>ATOM
      1 C         139.9198  139.3613  156.9963 C.ar    1  UNL1        0.0192
      2 C         140.5969  138.0453  156.7518 C.ar    1  UNL1        0.0013
      3 C         141.6090  137.5291  157.7312 C.ar    1  UNL1       -0.0029
      4 C         141.9440  138.3291  158.9552 C.ar    1  UNL1       -0.0061
      5 C         141.2669  139.6450  159.1997 C.ar    1  UNL1       -0.0029
      6 C         140.2549  140.1611  158.2202 C.ar    1  UNL1        0.0013
      7 C         133.9772  140.9750  154.7984 C.ar    1  UNL1        0.1335
      8 C         134.4183  141.4585  153.4488 C.ar    1  UNL1        0.0360
      9 C         135.8715  141.4258  153.0786 C.ar    1  UNL1        0.0251
     10 C         136.8836  140.9097  154.0580 C.ar    1  UNL1        0.1171
     11 N         138.3369  140.8770  153.6877 N.ar    1  UNL1       -0.2407
     12 C         139.3489  140.3609  154.6671 C.ar    1  UNL1        0.0989
     13 C         138.9078  139.8774  156.0169 C.ar    1  UNL1        0.1005
     14 N         137.4546  139.9101  156.3871 N.ar    1  UNL1       -0.2237
     15 C         136.4425  140.4262  155.4077 C.ar    1  UNL1        0.1814
     16 N         134.9893  140.4589  155.7779 N.ar    1  UNL1       -0.2104
     17 C         128.1643  141.1055  156.2796 C.3     1  UNL1        0.0897
     18 N         129.6175  141.0729  155.9093 N.3     1  UNL1       -0.2686
     19 C         130.1123  141.8748  154.7422 C.3     1  UNL1        0.0939
     20 C         131.5655  141.8422  154.3719 C.3     1  UNL1        0.1095
     21 N         132.5239  141.0077  155.1687 N.pl3   1  UNL1       -0.2903
     22 C         132.0292  140.2058  156.3358 C.3     1  UNL1        0.1095
     23 C         130.5760  140.2384  156.7061 C.3     1  UNL1        0.0939
     24 C         140.8021  140.3282  154.2969 C.ar    1  UNL1        0.0191
     25 C         141.7287  141.3947  154.8011 C.ar    1  UNL1        0.0015
     26 C         143.1819  141.3620  154.4309 C.ar    1  UNL1        0.0000
     27 C         143.7086  140.2629  153.5565 C.ar    1  UNL1        0.0000
     28 C         142.7821  139.1965  153.0523 C.ar    1  UNL1        0.0000
     29 C         141.3288  139.2291  153.4225 C.ar    1  UNL1        0.0015
     30 C         142.9561  137.8129  159.9346 C.3     1  UNL1        0.0991
     31 N         142.8418  138.1668  161.3879 N.3     1  UNL1       -0.2689
     32 C         143.8867  139.0269  162.0348 C.3     1  UNL1        0.0728
     33 C         143.7724  139.3808  163.4880 C.3     1  UNL1        0.0249
     34 C         142.6132  138.8746  164.2942 C.3     1  UNL1        0.0613
     35 C         141.5682  138.0146  163.6472 C.3     1  UNL1        0.0249
     36 C         141.6826  137.6607  162.1941 C.3     1  UNL1        0.0728
     37 C         142.4988  139.2285  165.7474 C.ar    1  UNL1        0.1396
     38 N         143.3186  138.6505  166.8627 N.ar    1  UNL1       -0.1336
     39 N         142.8711  139.2873  168.1450 N.ar    1  UNL1       -0.1293
     40 C         141.7747  140.2588  167.8221 C.ar    1  UNL1        0.1644
     41 N         141.5447  140.2224  166.3403 N.ar    1  UNL1       -0.3245
     42 H         140.8835  140.7571  165.8440 H       1  UNL1        0.1686
     43 C         141.0377  141.1161  168.8080 C.ar    1  UNL1        0.0550
     44 C         141.4424  142.5467  169.0076 C.ar    1  UNL1        0.0075
     45 C         140.7054  143.4040  169.9934 C.ar    1  UNL1        0.0340
     46 C         139.5639  142.8308  170.7797 C.ar    1  UNL1        0.1254
     47 N         138.8270  143.6881  171.7655 N.pl3   1  UNL1       -0.3426
     48 N         139.1592  141.4002  170.5801 N.ar    1  UNL1       -0.2295
     49 C         139.8962  140.5430  169.5943 C.ar    1  UNL1        0.1033
     50 H         139.0926  144.6270  171.8965 H       1  UNL1        0.1437
     51 H         138.0777  143.3119  172.2816 H       1  UNL1        0.1437
@<TRIPOS>BOND
     1    17    18    1
     2    18    19    1
     3    19    20    1
     4    20    21    1
     5    21     7    1
     6     7     8   ar
     7     8     9   ar
     8     9    10   ar
     9    10    11   ar
    10    11    12   ar
    11    12    24    1
    12    24    25   ar
    13    25    26   ar
    14    26    27   ar
    15    27    28   ar
    16    28    29   ar
    17    12    13   ar
    18    13     1    1
    19     1     2   ar
    20     2     3   ar
    21     3     4   ar
    22     4    30    1
    23    30    31    1
    24    31    32    1
    25    32    33    1
    26    33    34    1
    27    34    37    1
    28    37    38   ar
    29    38    39   ar
    30    39    40   ar
    31    40    43    1
    32    43    44   ar
    33    44    45   ar
    34    45    46   ar
    35    46    47    1
    36    46    48   ar
    37    48    49   ar
    38    40    41   ar
    39    34    35    1
    40    35    36    1
    41     4     5   ar
    42     5     6   ar
    43    13    14   ar
    44    14    15   ar
    45    15    16   ar
    46    21    22    1
    47    22    23    1
    48    23    18    1
    49    16     7   ar
    50    15    10   ar
    51    29    24   ar
    52     6     1   ar
    53    36    31    1
    54    41    37   ar
    55    49    43   ar
    56    47    50    1
    57    47    51    1
    58    41    42    1
@<TRIPOS>MOLECULE
*****
 51 58 0 0 0
SMALL
GASTEIGER

@<TRIPOS>ATOM
      1 C         139.6176  139.6044  156.6797 C.ar    1  UNL1        0.0192
      2 C         140.0707  138.1834  156.5192 C.ar    1  UNL1        0.0013
      3 C         141.1870  137.6517  157.3684 C.ar    1  UNL1       -0.0029
      4 C         141.8502  138.5410  158.3781 C.ar    1  UNL1       -0.0061
      5 C         141.3972  139.9619  158.5386 C.ar    1  UNL1       -0.0029
      6 C         140.2808  140.4936  157.6894 C.ar    1  UNL1        0.0013
      7 C         133.4307  140.9892  155.0815 C.ar    1  UNL1        0.1335
      8 C         133.7334  141.6261  153.7576 C.ar    1  UNL1        0.0360
      9 C         135.1524  141.7312  153.2829 C.ar    1  UNL1        0.0251
     10 C         136.2687  141.1995  154.1321 C.ar    1  UNL1        0.1171
     11 N         137.6878  141.3046  153.6573 N.ar    1  UNL1       -0.2407
     12 C         138.8041  140.7729  154.5065 C.ar    1  UNL1        0.0989
     13 C         138.5013  140.1361  155.8305 C.ar    1  UNL1        0.1005
     14 N         137.0823  140.0310  156.3052 N.ar    1  UNL1       -0.2237
     15 C         135.9660  140.5627  155.4560 C.ar    1  UNL1        0.1814
     16 N         134.5471  140.4575  155.9307 N.ar    1  UNL1       -0.2104
     17 C         127.7548  140.5686  156.9806 C.3     1  UNL1        0.0897
     18 N         129.1737  140.6738  156.5059 N.3     1  UNL1       -0.2686
     19 C         129.5328  141.6511  155.4261 C.3     1  UNL1        0.0939
     20 C         130.9519  141.7563  154.9513 C.3     1  UNL1        0.1095
     21 N         132.0117  140.8841  155.5563 N.pl3   1  UNL1       -0.2903
     22 C         131.6526  139.9067  156.6360 C.3     1  UNL1        0.1095
     23 C         130.2336  139.8016  157.1108 C.3     1  UNL1        0.0939
     24 C         140.2230  140.8781  154.0318 C.ar    1  UNL1        0.0191
     25 C         140.8057  139.8013  153.1650 C.ar    1  UNL1        0.0015
     26 C         142.2246  139.9065  152.6903 C.ar    1  UNL1        0.0000
     27 C         143.0611  141.0883  153.0824 C.ar    1  UNL1        0.0000
     28 C         142.4785  142.1649  153.9491 C.ar    1  UNL1        0.0000
     29 C         141.0595  142.0599  154.4239 C.ar    1  UNL1        0.0015
     30 C         142.9666  138.0093  159.2273 C.3     1  UNL1        0.0991
     31 N         142.9448  138.2197  160.7124 N.3     1  UNL1       -0.2689
     32 C         141.7604  137.7714  161.5161 C.3     1  UNL1        0.0728
     33 C         141.7386  137.9818  163.0012 C.3     1  UNL1        0.0249
     34 C         142.9014  138.6405  163.6825 C.3     1  UNL1        0.0613
     35 C         144.0859  139.0888  162.8786 C.3     1  UNL1        0.0249
     36 C         144.1076  138.8784  161.3937 C.3     1  UNL1        0.0728
     37 C         142.8797  138.8509  165.1674 C.ar    1  UNL1        0.1396
     38 N         143.7127  138.1147  166.1745 N.ar    1  UNL1       -0.1336
     39 N         143.3690  138.6432  167.5356 N.ar    1  UNL1       -0.1293
     40 C         142.3236  139.7061  167.3697 C.ar    1  UNL1        0.1644
     41 N         142.0212  139.8344  165.9061 N.ar    1  UNL1       -0.3245
     42 H         141.3731  140.4552  165.5014 H       1  UNL1        0.1686
     43 C         141.6916  140.5011  168.4736 C.ar    1  UNL1        0.0550
     44 C         141.1695  141.8805  168.2004 C.ar    1  UNL1        0.0075
     45 C         140.5374  142.6754  169.3043 C.ar    1  UNL1        0.0340
     46 C         140.4275  142.0910  170.6814 C.ar    1  UNL1        0.1254
     47 N         139.7955  142.8859  171.7852 N.pl3   1  UNL1       -0.3426
     48 N         140.9497  140.7115  170.9545 N.ar    1  UNL1       -0.2295
     49 C         141.5816  139.9166  169.8506 C.ar    1  UNL1        0.1033
     50 H         139.4528  143.7913  171.6059 H       1  UNL1        0.1437
     51 H         139.7233  142.5023  172.6890 H       1  UNL1        0.1437
@<TRIPOS>BOND
     1    17    18    1
     2    18    19    1
     3    19    20    1
     4    20    21    1
     5    21     7    1
     6     7     8   ar
     7     8     9   ar
     8     9    10   ar
     9    10    11   ar
    10    11    12   ar
    11    12    24    1
    12    24    25   ar
    13    25    26   ar
    14    26    27   ar
    15    27    28   ar
    16    28    29   ar
    17    12    13   ar
    18    13     1    1
    19     1     2   ar
    20     2     3   ar
    21     3     4   ar
    22     4    30    1
    23    30    31    1
    24    31    32    1
    25    32    33    1
    26    33    34    1
    27    34    37    1
    28    37    38   ar
    29    38    39   ar
    30    39    40   ar
    31    40    43    1
    32    43    44   ar
    33    44    45   ar
    34    45    46   ar
    35    46    47    1
    36    46    48   ar
    37    48    49   ar
    38    40    41   ar
    39    34    35    1
    40    35    36    1
    41     4     5   ar
    42     5     6   ar
    43    13    14   ar
    44    14    15   ar
    45    15    16   ar
    46    21    22    1
    47    22    23    1
    48    23    18    1
    49    16     7   ar
    50    15    10   ar
    51    29    24   ar
    52     6     1   ar
    53    36    31    1
    54    41    37   ar
    55    49    43   ar
    56    47    50    1
    57    47    51    1
    58    41    42    1
@<TRIPOS>MOLECULE
*****
 51 58 0 0 0
SMALL
GASTEIGER

@<TRIPOS>ATOM
      1 C         144.6867  140.7755  156.5506 C.ar    1  UNL1        0.0192
      2 C         144.4755  141.2016  157.9732 C.ar    1  UNL1        0.0013
      3 C         143.5737  140.4049  158.8688 C.ar    1  UNL1       -0.0029
      4 C         142.8832  139.1819  158.3417 C.ar    1  UNL1       -0.0061
      5 C         143.0945  138.7558  156.9191 C.ar    1  UNL1       -0.0029
      6 C         143.9962  139.5526  156.0236 C.ar    1  UNL1        0.0013
      7 C         150.3359  142.5924  153.8056 C.ar    1  UNL1        0.1335
      8 C         149.7656  143.6759  152.9392 C.ar    1  UNL1        0.0360
      9 C         148.2936  143.9626  152.9683 C.ar    1  UNL1        0.0251
     10 C         147.3919  143.1658  153.8639 C.ar    1  UNL1        0.1171
     11 N         145.9197  143.4526  153.8929 N.ar    1  UNL1       -0.2407
     12 C         145.0180  142.6558  154.7885 C.ar    1  UNL1        0.0989
     13 C         145.5884  141.5723  155.6550 C.ar    1  UNL1        0.1005
     14 N         147.0604  141.2856  155.6259 N.ar    1  UNL1       -0.2237
     15 C         147.9622  142.0824  154.7303 C.ar    1  UNL1        0.1814
     16 N         149.4342  141.7957  154.7012 N.ar    1  UNL1       -0.2104
     17 C         156.2241  141.4454  153.6893 C.3     1  UNL1        0.0897
     18 N         154.7521  141.7322  153.7184 N.3     1  UNL1       -0.2686
     19 C         154.2587  143.0774  154.1621 C.3     1  UNL1        0.0939
     20 C         152.7866  143.3642  154.1912 C.3     1  UNL1        0.1095
     21 N         151.8080  142.3057  153.7766 N.pl3   1  UNL1       -0.2903
     22 C         152.3014  140.9605  153.3328 C.3     1  UNL1        0.1095
     23 C         153.7734  140.6737  153.3037 C.3     1  UNL1        0.0939
     24 C         143.5460  142.9425  154.8176 C.ar    1  UNL1        0.0191
     25 C         142.6290  142.2565  153.8488 C.ar    1  UNL1        0.0015
     26 C         141.1569  142.5432  153.8779 C.ar    1  UNL1        0.0000
     27 C         140.6019  143.5158  154.8758 C.ar    1  UNL1        0.0000
     28 C         141.5188  144.2018  155.8446 C.ar    1  UNL1        0.0000
     29 C         142.9909  143.9152  155.8155 C.ar    1  UNL1        0.0015
     30 C         141.9815  138.3852  159.2373 C.3     1  UNL1        0.0991
     31 N         141.9756  138.6412  160.7153 N.3     1  UNL1       -0.2689
     32 C         140.9142  139.5105  161.3216 C.3     1  UNL1        0.0728
     33 C         140.9082  139.7666  162.7996 C.3     1  UNL1        0.0249
     34 C         141.9638  139.1533  163.6713 C.3     1  UNL1        0.0613
     35 C         143.0252  138.2839  163.0649 C.3     1  UNL1        0.0249
     36 C         143.0311  138.0279  161.5869 C.3     1  UNL1        0.0728
     37 C         141.9579  139.4093  165.1492 C.ar    1  UNL1        0.1396
     38 N         142.8221  138.7245  166.1661 N.ar    1  UNL1       -0.1336
     39 N         142.4851  139.2870  167.5152 N.ar    1  UNL1       -0.1293
     40 C         141.4125  140.3196  167.3320 C.ar    1  UNL1        0.1644
     41 N         141.0867  140.3951  165.8697 N.ar    1  UNL1       -0.3245
     42 H         140.4184  140.9877  165.4557 H       1  UNL1        0.1686
     43 C         140.7773  141.1336  168.4200 C.ar    1  UNL1        0.0550
     44 C         141.1390  142.5802  168.5829 C.ar    1  UNL1        0.0075
     45 C         140.5038  143.3942  169.6710 C.ar    1  UNL1        0.0340
     46 C         139.5068  142.7617  170.5962 C.ar    1  UNL1        0.1254
     47 N         138.8716  143.5757  171.6841 N.pl3   1  UNL1       -0.3426
     48 N         139.1450  141.3150  170.4332 N.ar    1  UNL1       -0.2295
     49 C         139.7803  140.5011  169.3452 C.ar    1  UNL1        0.1033
     50 H         139.1091  144.5251  171.7911 H       1  UNL1        0.1437
     51 H         138.2173  143.1605  172.2913 H       1  UNL1        0.1437
@<TRIPOS>BOND
     1    17    18    1
     2    18    19    1
     3    19    20    1
     4    20    21    1
     5    21     7    1
     6     7     8   ar
     7     8     9   ar
     8     9    10   ar
     9    10    11   ar
    10    11    12   ar
    11    12    24    1
    12    24    25   ar
    13    25    26   ar
    14    26    27   ar
    15    27    28   ar
    16    28    29   ar
    17    12    13   ar
    18    13     1    1
    19     1     2   ar
    20     2     3   ar
    21     3     4   ar
    22     4    30    1
    23    30    31    1
    24    31    32    1
    25    32    33    1
    26    33    34    1
    27    34    37    1
    28    37    38   ar
    29    38    39   ar
    30    39    40   ar
    31    40    43    1
    32    43    44   ar
    33    44    45   ar
    34    45    46   ar
    35    46    47    1
    36    46    48   ar
    37    48    49   ar
    38    40    41   ar
    39    34    35    1
    40    35    36    1
    41     4     5   ar
    42     5     6   ar
    43    13    14   ar
    44    14    15   ar
    45    15    16   ar
    46    21    22    1
    47    22    23    1
    48    23    18    1
    49    16     7   ar
    50    15    10   ar
    51    29    24   ar
    52     6     1   ar
    53    36    31    1
    54    41    37   ar
    55    49    43   ar
    56    47    50    1
    57    47    51    1
    58    41    42    1
@<TRIPOS>MOLECULE
*****
 51 58 0 0 0
SMALL
GASTEIGER

@<TRIPOS>ATOM
      1 C         142.0056  140.8866  163.9503 C.ar    1  UNL1        0.0192
      2 C         142.8585  142.0434  163.5210 C.ar    1  UNL1        0.0013
      3 C         143.1691  142.2476  162.0677 C.ar    1  UNL1       -0.0029
      4 C         142.6267  141.2949  161.0439 C.ar    1  UNL1       -0.0061
      5 C         141.7738  140.1381  161.4732 C.ar    1  UNL1       -0.0029
      6 C         141.4633  139.9339  162.9265 C.ar    1  UNL1        0.0013
      7 C         142.8819  138.5857  170.0074 C.ar    1  UNL1        0.1335
      8 C         141.6675  139.2257  170.6120 C.ar    1  UNL1        0.0360
      9 C         140.7636  140.0699  169.7633 C.ar    1  UNL1        0.0251
     10 C         141.0741  140.2741  168.3100 C.ar    1  UNL1        0.1171
     11 N         140.1701  141.1183  167.4614 N.ar    1  UNL1       -0.2407
     12 C         140.4806  141.3225  166.0081 C.ar    1  UNL1        0.0989
     13 C         141.6951  140.6824  165.4036 C.ar    1  UNL1        0.1005
     14 N         142.5990  139.8382  166.2522 N.ar    1  UNL1       -0.2237
     15 C         142.2885  139.6341  167.7055 C.ar    1  UNL1        0.1814
     16 N         143.1924  138.7899  168.5542 N.ar    1  UNL1       -0.2104
     17 C         146.4977  135.2090  173.4021 C.3     1  UNL1        0.0897
     18 N         145.5938  136.0531  172.5534 N.3     1  UNL1       -0.2686
     19 C         144.6309  135.4017  171.6055 C.3     1  UNL1        0.0939
     20 C         143.7269  136.2460  170.7568 C.3     1  UNL1        0.1095
     21 N         143.7858  137.7415  170.8561 N.pl3   1  UNL1       -0.2903
     22 C         144.7487  138.3929  171.8040 C.3     1  UNL1        0.1095
     23 C         145.6526  137.5487  172.6527 C.3     1  UNL1        0.0939
     24 C         139.5767  142.1667  165.1594 C.ar    1  UNL1        0.0191
     25 C         138.4320  141.5347  164.4244 C.ar    1  UNL1        0.0015
     26 C         137.5281  142.3788  163.5757 C.ar    1  UNL1        0.0000
     27 C         137.7689  143.8550  163.4620 C.ar    1  UNL1        0.0000
     28 C         138.9135  144.4870  164.1970 C.ar    1  UNL1        0.0000
     29 C         139.8175  143.6428  165.0458 C.ar    1  UNL1        0.0015
     30 C         142.9372  141.4991  159.5906 C.3     1  UNL1        0.0991
     31 N         142.1730  142.5164  158.7961 N.3     1  UNL1       -0.2689
     32 C         140.6880  142.3805  158.6346 C.3     1  UNL1        0.0728
     33 C         139.9238  143.3978  157.8401 C.3     1  UNL1        0.0249
     34 C         140.6447  144.5509  157.2071 C.3     1  UNL1        0.0613
     35 C         142.1298  144.6868  157.3687 C.3     1  UNL1        0.0249
     36 C         142.8939  143.6695  158.1632 C.3     1  UNL1        0.0728
     37 C         139.8806  145.5682  156.4127 C.ar    1  UNL1        0.1396
     38 N         138.6156  145.3193  155.6460 N.ar    1  UNL1       -0.1336
     39 N         138.2004  146.6103  155.0048 N.ar    1  UNL1       -0.1293
     40 C         139.2089  147.6571  155.3754 C.ar    1  UNL1        0.1644
     41 N         140.2473  147.0130  156.2454 N.ar    1  UNL1       -0.3245
     42 H         141.0317  147.4601  156.6378 H       1  UNL1        0.1686
     43 C         139.1835  149.0954  154.9504 C.ar    1  UNL1        0.0550
     44 C         138.5071  150.1202  155.8119 C.ar    1  UNL1        0.0075
     45 C         138.4817  151.5585  155.3869 C.ar    1  UNL1        0.0340
     46 C         139.1326  151.9721  154.1004 C.ar    1  UNL1        0.1254
     47 N         139.1072  153.4103  153.6754 N.pl3   1  UNL1       -0.3426
     48 N         139.8091  150.9472  153.2388 N.ar    1  UNL1       -0.2295
     49 C         139.8345  149.5090  153.6638 C.ar    1  UNL1        0.1033
     50 H         138.6633  154.0829  154.2409 H       1  UNL1        0.1437
     51 H         139.5345  153.6817  152.8310 H       1  UNL1        0.1437
@<TRIPOS>BOND
     1    17    18    1
     2    18    19    1
     3    19    20    1
     4    20    21    1
     5    21     7    1
     6     7     8   ar
     7     8     9   ar
     8     9    10   ar
     9    10    11   ar
    10    11    12   ar
    11    12    24    1
    12    24    25   ar
    13    25    26   ar
    14    26    27   ar
    15    27    28   ar
    16    28    29   ar
    17    12    13   ar
    18    13     1    1
    19     1     2   ar
    20     2     3   ar
    21     3     4   ar
    22     4    30    1
    23    30    31    1
    24    31    32    1
    25    32    33    1
    26    33    34    1
    27    34    37    1
    28    37    38   ar
    29    38    39   ar
    30    39    40   ar
    31    40    43    1
    32    43    44   ar
    33    44    45   ar
    34    45    46   ar
    35    46    47    1
    36    46    48   ar
    37    48    49   ar
    38    40    41   ar
    39    34    35    1
    40    35    36    1
    41     4     5   ar
    42     5     6   ar
    43    13    14   ar
    44    14    15   ar
    45    15    16   ar
    46    21    22    1
    47    22    23    1
    48    23    18    1
    49    16     7   ar
    50    15    10   ar
    51    29    24   ar
    52     6     1   ar
    53    36    31    1
    54    41    37   ar
    55    49    43   ar
    56    47    50    1
    57    47    51    1
    58    41    42    1
@<TRIPOS>MOLECULE
*****
 51 58 0 0 0
SMALL
GASTEIGER

@<TRIPOS>ATOM
      1 C         141.4086  142.1099  156.3820 C.ar    1  UNL1        0.0192
      2 C         141.0793  142.5727  157.7704 C.ar    1  UNL1        0.0013
      3 C         140.0718  141.8238  158.5914 C.ar    1  UNL1       -0.0029
      4 C         139.3935  140.6121  158.0240 C.ar    1  UNL1       -0.0061
      5 C         139.7228  140.1494  156.6357 C.ar    1  UNL1       -0.0029
      6 C         140.7303  140.8983  155.8147 C.ar    1  UNL1        0.0013
      7 C         147.2905  143.4509  153.8612 C.ar    1  UNL1        0.1335
      8 C         146.8683  144.6527  153.0691 C.ar    1  UNL1        0.0360
      9 C         145.4386  145.1056  153.0980 C.ar    1  UNL1        0.0251
     10 C         144.4311  144.3566  153.9190 C.ar    1  UNL1        0.1171
     11 N         143.0014  144.8096  153.9479 N.ar    1  UNL1       -0.2407
     12 C         141.9938  144.0606  154.7689 C.ar    1  UNL1        0.0989
     13 C         142.4161  142.8588  155.5610 C.ar    1  UNL1        0.1005
     14 N         143.8458  142.4060  155.5321 N.ar    1  UNL1       -0.2237
     15 C         144.8533  143.1549  154.7111 C.ar    1  UNL1        0.1814
     16 N         146.2830  142.7020  154.6822 N.ar    1  UNL1       -0.2104
     17 C         153.0093  141.6393  153.7459 C.3     1  UNL1        0.0897
     18 N         151.5796  142.0922  153.7747 N.3     1  UNL1       -0.2686
     19 C         151.1121  143.1602  152.8309 C.3     1  UNL1        0.0939
     20 C         149.6823  143.6131  152.8597 C.3     1  UNL1        0.1095
     21 N         148.7202  142.9980  153.8324 N.pl3   1  UNL1       -0.2903
     22 C         149.1878  141.9300  154.7762 C.3     1  UNL1        0.1095
     23 C         150.6175  141.4771  154.7474 C.3     1  UNL1        0.0939
     24 C         140.5642  144.5135  154.7978 C.ar    1  UNL1        0.0191
     25 C         139.5178  143.7422  154.0491 C.ar    1  UNL1        0.0015
     26 C         138.0881  144.1951  154.0780 C.ar    1  UNL1        0.0000
     27 C         137.7047  145.4192  154.8555 C.ar    1  UNL1        0.0000
     28 C         138.7509  146.1904  155.6042 C.ar    1  UNL1        0.0000
     29 C         140.1807  145.7376  155.5753 C.ar    1  UNL1        0.0015
     30 C         138.3860  139.8632  158.8450 C.3     1  UNL1        0.0991
     31 N         138.5113  139.8307  160.3395 N.3     1  UNL1       -0.2689
     32 C         137.7627  140.8249  161.1767 C.3     1  UNL1        0.0728
     33 C         137.8880  140.7924  162.6711 C.3     1  UNL1        0.0249
     34 C         138.7620  139.7657  163.3283 C.3     1  UNL1        0.0613
     35 C         139.5107  138.7714  162.4910 C.3     1  UNL1        0.0249
     36 C         139.3854  138.8040  160.9967 C.3     1  UNL1        0.0728
     37 C         138.8874  139.7332  164.8227 C.ar    1  UNL1        0.1396
     38 N         138.1141  138.8466  165.7533 N.ar    1  UNL1       -0.1336
     39 N         138.5568  139.1470  167.1546 N.ar    1  UNL1       -0.1293
     40 C         139.6038  140.2193  167.0900 C.ar    1  UNL1        0.1644
     41 N         139.8081  140.5815  165.6489 N.ar    1  UNL1       -0.3245
     42 H         140.4362  141.2574  165.3055 H       1  UNL1        0.1686
     43 C         140.3206  140.8233  168.2611 C.ar    1  UNL1        0.0550
     44 C         140.7277  139.9597  169.4180 C.ar    1  UNL1        0.0075
     45 C         141.4445  140.5636  170.5891 C.ar    1  UNL1        0.0340
     46 C         141.7542  142.0312  170.6033 C.ar    1  UNL1        0.1254
     47 N         142.4710  142.6351  171.7743 N.pl3   1  UNL1       -0.3426
     48 N         141.3471  142.8949  169.4463 N.ar    1  UNL1       -0.2295
     49 C         140.6304  142.2909  168.2753 C.ar    1  UNL1        0.1033
     50 H         142.7382  142.0683  172.5336 H       1  UNL1        0.1437
     51 H         142.6743  143.5984  171.7836 H       1  UNL1        0.1437
@<TRIPOS>BOND
     1    17    18    1
     2    18    19    1
     3    19    20    1
     4    20    21    1
     5    21     7    1
     6     7     8   ar
     7     8     9   ar
     8     9    10   ar
     9    10    11   ar
    10    11    12   ar
    11    12    24    1
    12    24    25   ar
    13    25    26   ar
    14    26    27   ar
    15    27    28   ar
    16    28    29   ar
    17    12    13   ar
    18    13     1    1
    19     1     2   ar
    20     2     3   ar
    21     3     4   ar
    22     4    30    1
    23    30    31    1
    24    31    32    1
    25    32    33    1
    26    33    34    1
    27    34    37    1
    28    37    38   ar
    29    38    39   ar
    30    39    40   ar
    31    40    43    1
    32    43    44   ar
    33    44    45   ar
    34    45    46   ar
    35    46    47    1
    36    46    48   ar
    37    48    49   ar
    38    40    41   ar
    39    34    35    1
    40    35    36    1
    41     4     5   ar
    42     5     6   ar
    43    13    14   ar
    44    14    15   ar
    45    15    16   ar
    46    21    22    1
    47    22    23    1
    48    23    18    1
    49    16     7   ar
    50    15    10   ar
    51    29    24   ar
    52     6     1   ar
    53    36    31    1
    54    41    37   ar
    55    49    43   ar
    56    47    50    1
    57    47    51    1
    58    41    42    1
@<TRIPOS>MOLECULE
*****
 51 58 0 0 0
SMALL
GASTEIGER

@<TRIPOS>ATOM
      1 C         140.0754  141.4165  156.5709 C.ar    1  UNL1        0.0192
      2 C         139.3772  142.4290  157.4298 C.ar    1  UNL1        0.0013
      3 C         138.4594  141.9767  158.5266 C.ar    1  UNL1       -0.0029
      4 C         138.2398  140.5120  158.7646 C.ar    1  UNL1       -0.0061
      5 C         138.9380  139.4997  157.9058 C.ar    1  UNL1       -0.0029
      6 C         139.8558  139.9519  156.8090 C.ar    1  UNL1        0.0013
      7 C         145.8016  142.6385  153.6610 C.ar    1  UNL1        0.1335
      8 C         145.2331  143.1581  152.3739 C.ar    1  UNL1        0.0360
      9 C         143.7467  143.2255  152.1836 C.ar    1  UNL1        0.0251
     10 C         142.8289  142.7733  153.2804 C.ar    1  UNL1        0.1171
     11 N         141.3425  142.8407  153.0901 N.ar    1  UNL1       -0.2407
     12 C         140.4247  142.3884  154.1869 C.ar    1  UNL1        0.0989
     13 C         140.9933  141.8688  155.4741 C.ar    1  UNL1        0.1005
     14 N         142.4796  141.8014  155.6644 N.ar    1  UNL1       -0.2237
     15 C         143.3974  142.2536  154.5675 C.ar    1  UNL1        0.1814
     16 N         144.8837  142.1863  154.7578 N.ar    1  UNL1       -0.2104
     17 C         151.7470  142.3689  154.4224 C.3     1  UNL1        0.0897
     18 N         150.2607  142.4363  154.2321 N.3     1  UNL1       -0.2686
     19 C         149.6847  143.2409  153.1048 C.3     1  UNL1        0.0939
     20 C         148.1983  143.3083  152.9144 C.3     1  UNL1        0.1095
     21 N         147.2880  142.5711  153.8513 N.pl3   1  UNL1       -0.2903
     22 C         147.8640  141.7665  154.9786 C.3     1  UNL1        0.1095
     23 C         149.3503  141.6991  155.1690 C.3     1  UNL1        0.0939
     24 C         138.9384  142.4558  153.9966 C.ar    1  UNL1        0.0191
     25 C         138.1770  141.2269  153.5960 C.ar    1  UNL1        0.0015
     26 C         136.6907  141.2943  153.4057 C.ar    1  UNL1        0.0000
     27 C         135.9656  142.5905  153.6160 C.ar    1  UNL1        0.0000
     28 C         136.7269  143.8193  154.0166 C.ar    1  UNL1        0.0000
     29 C         138.2133  143.7519  154.2069 C.ar    1  UNL1        0.0015
     30 C         137.3219  140.0598  159.8615 C.3     1  UNL1        0.0991
     31 N         137.7662  140.1400  161.2920 N.3     1  UNL1       -0.2689
     32 C         137.7069  141.4482  162.0235 C.3     1  UNL1        0.0728
     33 C         138.1512  141.5284  163.4540 C.3     1  UNL1        0.0249
     34 C         138.6547  140.3004  164.1529 C.3     1  UNL1        0.0613
     35 C         138.7140  138.9922  163.4213 C.3     1  UNL1        0.0249
     36 C         138.2698  138.9120  161.9909 C.3     1  UNL1        0.0728
     37 C         139.0990  140.3806  165.5833 C.ar    1  UNL1        0.1396
     38 N         138.6588  139.4752  166.6954 N.ar    1  UNL1       -0.1336
     39 N         139.3492  139.9153  167.9522 N.ar    1  UNL1       -0.1293
     40 C         140.2161  141.0927  167.6169 C.ar    1  UNL1        0.1644
     41 N         140.0614  141.3802  166.1529 N.ar    1  UNL1       -0.3245
     42 H         140.5124  142.0988  165.6535 H       1  UNL1        0.1686
     43 C         141.0851  141.8496  168.5771 C.ar    1  UNL1        0.0550
     44 C         142.5265  141.4696  168.7438 C.ar    1  UNL1        0.0075
     45 C         143.3955  142.2265  169.7041 C.ar    1  UNL1        0.0340
     46 C         142.8230  143.3634  170.4976 C.ar    1  UNL1        0.1254
     47 N         143.6919  144.1203  171.4577 N.pl3   1  UNL1       -0.3426
     48 N         141.3814  143.7434  170.3308 N.ar    1  UNL1       -0.2295
     49 C         140.5126  142.9865  169.3707 C.ar    1  UNL1        0.1033
     50 H         144.6380  143.8708  171.5671 H       1  UNL1        0.1437
     51 H         143.3162  144.8665  171.9786 H       1  UNL1        0.1437
@<TRIPOS>BOND
     1    17    18    1
     2    18    19    1
     3    19    20    1
     4    20    21    1
     5    21     7    1
     6     7     8   ar
     7     8     9   ar
     8     9    10   ar
     9    10    11   ar
    10    11    12   ar
    11    12    24    1
    12    24    25   ar
    13    25    26   ar
    14    26    27   ar
    15    27    28   ar
    16    28    29   ar
    17    12    13   ar
    18    13     1    1
    19     1     2   ar
    20     2     3   ar
    21     3     4   ar
    22     4    30    1
    23    30    31    1
    24    31    32    1
    25    32    33    1
    26    33    34    1
    27    34    37    1
    28    37    38   ar
    29    38    39   ar
    30    39    40   ar
    31    40    43    1
    32    43    44   ar
    33    44    45   ar
    34    45    46   ar
    35    46    47    1
    36    46    48   ar
    37    48    49   ar
    38    40    41   ar
    39    34    35    1
    40    35    36    1
    41     4     5   ar
    42     5     6   ar
    43    13    14   ar
    44    14    15   ar
    45    15    16   ar
    46    21    22    1
    47    22    23    1
    48    23    18    1
    49    16     7   ar
    50    15    10   ar
    51    29    24   ar
    52     6     1   ar
    53    36    31    1
    54    41    37   ar
    55    49    43   ar
    56    47    50    1
    57    47    51    1
    58    41    42    1
@<TRIPOS>MOLECULE
*****
 51 58 0 0 0
SMALL
GASTEIGER

@<TRIPOS>ATOM
      1 C         143.3281  138.8096  156.4849 C.ar    1  UNL1        0.0192
      2 C         144.5014  139.6792  156.1424 C.ar    1  UNL1        0.0013
      3 C         144.7861  140.9083  156.9537 C.ar    1  UNL1       -0.0029
      4 C         143.8975  141.2678  158.1075 C.ar    1  UNL1       -0.0061
      5 C         142.7242  140.3982  158.4500 C.ar    1  UNL1       -0.0029
      6 C         142.4395  139.1691  157.6386 C.ar    1  UNL1        0.0013
      7 C         143.4461  132.4450  154.9925 C.ar    1  UNL1        0.1335
      8 C         142.6754  132.5545  153.7104 C.ar    1  UNL1        0.0360
      9 C         142.1893  133.8932  153.2396 C.ar    1  UNL1        0.0251
     10 C         142.4740  135.1223  154.0509 C.ar    1  UNL1        0.1171
     11 N         141.9880  136.4610  153.5800 N.ar    1  UNL1       -0.2407
     12 C         142.2727  137.6901  154.3913 C.ar    1  UNL1        0.0989
     13 C         143.0434  137.5805  155.6736 C.ar    1  UNL1        0.1005
     14 N         143.5294  136.2418  156.1444 N.ar    1  UNL1       -0.2237
     15 C         143.2447  135.0127  155.3330 C.ar    1  UNL1        0.1814
     16 N         143.7307  133.6741  155.8039 N.ar    1  UNL1       -0.2104
     17 C         145.3902  127.0903  156.8761 C.3     1  UNL1        0.0897
     18 N         144.9042  128.4289  156.4052 N.3     1  UNL1       -0.2686
     19 C         144.9594  128.7764  154.9471 C.3     1  UNL1        0.0939
     20 C         144.4733  130.1151  154.4762 C.3     1  UNL1        0.1095
     21 N         143.9321  131.1063  155.4634 N.pl3   1  UNL1       -0.2903
     22 C         143.8770  130.7588  156.9216 C.3     1  UNL1        0.1095
     23 C         144.3630  129.4201  157.3925 C.3     1  UNL1        0.0939
     24 C         141.7866  139.0288  153.9205 C.ar    1  UNL1        0.0191
     25 C         142.6057  139.8244  152.9477 C.ar    1  UNL1        0.0015
     26 C         142.1196  141.1631  152.4769 C.ar    1  UNL1        0.0000
     27 C         140.8146  141.7062  152.9788 C.ar    1  UNL1        0.0000
     28 C         139.9956  140.9107  153.9516 C.ar    1  UNL1        0.0000
     29 C         140.4816  139.5719  154.4224 C.ar    1  UNL1        0.0015
     30 C         144.1821  142.4969  158.9189 C.3     1  UNL1        0.0991
     31 N         143.9999  142.4717  160.4076 N.3     1  UNL1       -0.2689
     32 C         142.9923  143.3745  161.0553 C.3     1  UNL1        0.0728
     33 C         142.8100  143.3493  162.5440 C.3     1  UNL1        0.0249
     34 C         143.6356  142.4213  163.3850 C.3     1  UNL1        0.0613
     35 C         144.6433  141.5184  162.7373 C.3     1  UNL1        0.0249
     36 C         144.8254  141.5437  161.2486 C.3     1  UNL1        0.0728
     37 C         143.4534  142.3960  164.8736 C.ar    1  UNL1        0.1396
     38 N         144.1716  143.2633  165.8647 N.ar    1  UNL1       -0.1336
     39 N         143.6831  142.9024  167.2362 N.ar    1  UNL1       -0.1293
     40 C         142.6630  141.8120  167.0928 C.ar    1  UNL1        0.1644
     41 N         142.5210  141.4991  165.6327 N.ar    1  UNL1       -0.3245
     42 H         141.9212  140.8236  165.2413 H       1  UNL1        0.1686
     43 C         141.9160  141.1506  168.2129 C.ar    1  UNL1        0.0550
     44 C         140.4831  141.5095  168.4736 C.ar    1  UNL1        0.0075
     45 C         139.7361  140.8482  169.5937 C.ar    1  UNL1        0.0340
     46 C         140.4220  139.8280  170.4532 C.ar    1  UNL1        0.1254
     47 N         139.6750  139.1667  171.5732 N.pl3   1  UNL1       -0.3426
     48 N         141.8550  139.4691  170.1925 N.ar    1  UNL1       -0.2295
     49 C         142.6019  140.1304  169.0724 C.ar    1  UNL1        0.1033
     50 H         138.7345  139.4023  171.7443 H       1  UNL1        0.1437
     51 H         140.1252  138.4971  172.1373 H       1  UNL1        0.1437
@<TRIPOS>BOND
     1    17    18    1
     2    18    19    1
     3    19    20    1
     4    20    21    1
     5    21     7    1
     6     7     8   ar
     7     8     9   ar
     8     9    10   ar
     9    10    11   ar
    10    11    12   ar
    11    12    24    1
    12    24    25   ar
    13    25    26   ar
    14    26    27   ar
    15    27    28   ar
    16    28    29   ar
    17    12    13   ar
    18    13     1    1
    19     1     2   ar
    20     2     3   ar
    21     3     4   ar
    22     4    30    1
    23    30    31    1
    24    31    32    1
    25    32    33    1
    26    33    34    1
    27    34    37    1
    28    37    38   ar
    29    38    39   ar
    30    39    40   ar
    31    40    43    1
    32    43    44   ar
    33    44    45   ar
    34    45    46   ar
    35    46    47    1
    36    46    48   ar
    37    48    49   ar
    38    40    41   ar
    39    34    35    1
    40    35    36    1
    41     4     5   ar
    42     5     6   ar
    43    13    14   ar
    44    14    15   ar
    45    15    16   ar
    46    21    22    1
    47    22    23    1
    48    23    18    1
    49    16     7   ar
    50    15    10   ar
    51    29    24   ar
    52     6     1   ar
    53    36    31    1
    54    41    37   ar
    55    49    43   ar
    56    47    50    1
    57    47    51    1
    58    41    42    1
@<TRIPOS>MOLECULE
*****
 51 58 0 0 0
SMALL
GASTEIGER

@<TRIPOS>ATOM
      1 C         142.0461  137.2890  156.5975 C.ar    1  UNL1        0.0192
      2 C         141.0422  137.7757  157.6003 C.ar    1  UNL1        0.0013
      3 C         141.1388  139.1713  158.1415 C.ar    1  UNL1       -0.0029
      4 C         142.2392  140.0803  157.6798 C.ar    1  UNL1       -0.0061
      5 C         143.2430  139.5935  156.6771 C.ar    1  UNL1       -0.0029
      6 C         143.1464  138.1979  156.1359 C.ar    1  UNL1        0.0013
      7 C         143.2581  130.8708  156.3025 C.ar    1  UNL1        0.1335
      8 C         142.4106  130.5908  155.0970 C.ar    1  UNL1        0.0360
      9 C         141.6597  131.7065  154.4327 C.ar    1  UNL1        0.0251
     10 C         141.7563  133.1021  154.9739 C.ar    1  UNL1        0.1171
     11 N         141.0053  134.2178  154.3095 N.ar    1  UNL1       -0.2407
     12 C         141.1019  135.6134  154.8507 C.ar    1  UNL1        0.0989
     13 C         141.9495  135.8934  156.0563 C.ar    1  UNL1        0.1005
     14 N         142.7004  134.7777  156.7206 N.ar    1  UNL1       -0.2237
     15 C         142.6038  133.3821  156.1794 C.ar    1  UNL1        0.1814
     16 N         143.3547  132.2664  156.8437 N.ar    1  UNL1       -0.2104
     17 C         146.2618  126.4081  158.9601 C.3     1  UNL1        0.0897
     18 N         145.5109  127.5238  158.2957 N.3     1  UNL1       -0.2686
     19 C         145.1172  127.4079  156.8529 C.3     1  UNL1        0.0939
     20 C         144.3662  128.5236  156.1886 C.3     1  UNL1        0.1095
     21 N         144.0090  129.7551  156.9669 N.pl3   1  UNL1       -0.2903
     22 C         144.4028  129.8709  158.4097 C.3     1  UNL1        0.1095
     23 C         145.1537  128.7553  159.0741 C.3     1  UNL1        0.0939
     24 C         140.3510  136.7291  154.1863 C.ar    1  UNL1        0.0191
     25 C         138.9968  137.1281  154.6935 C.ar    1  UNL1        0.0015
     26 C         138.2459  138.2438  154.0292 C.ar    1  UNL1        0.0000
     27 C         138.8491  138.9605  152.8577 C.ar    1  UNL1        0.0000
     28 C         140.2032  138.5616  152.3505 C.ar    1  UNL1        0.0000
     29 C         140.9542  137.4459  153.0148 C.ar    1  UNL1        0.0015
     30 C         142.3358  141.4759  158.2210 C.3     1  UNL1        0.0991
     31 N         141.9305  141.7610  159.6369 N.3     1  UNL1       -0.2689
     32 C         142.9575  141.7392  160.7299 C.3     1  UNL1        0.0728
     33 C         142.5522  142.0243  162.1457 C.3     1  UNL1        0.0249
     34 C         141.1198  142.3312  162.4684 C.3     1  UNL1        0.0613
     35 C         140.0928  142.3530  161.3753 C.3     1  UNL1        0.0249
     36 C         140.4981  142.0679  159.9596 C.3     1  UNL1        0.0728
     37 C         140.7144  142.6163  163.8842 C.ar    1  UNL1        0.1396
     38 N         140.0316  143.8594  164.3725 N.ar    1  UNL1       -0.1336
     39 N         139.8159  143.7198  165.8503 N.ar    1  UNL1       -0.1293
     40 C         140.3654  142.3903  166.2753 C.ar    1  UNL1        0.1644
     41 N         140.9207  141.7084  165.0602 N.ar    1  UNL1       -0.3245
     42 H         141.3460  140.8207  165.0384 H       1  UNL1        0.1686
     43 C         140.3605  141.8395  167.6705 C.ar    1  UNL1        0.0550
     44 C         140.5945  142.7519  168.8379 C.ar    1  UNL1        0.0075
     45 C         140.5895  142.2012  170.2331 C.ar    1  UNL1        0.0340
     46 C         140.3506  140.7380  170.4610 C.ar    1  UNL1        0.1254
     47 N         140.3457  140.1872  171.8562 N.pl3   1  UNL1       -0.3426
     48 N         140.1166  139.8255  169.2935 N.ar    1  UNL1       -0.2295
     49 C         140.1215  140.3763  167.8984 C.ar    1  UNL1        0.1033
     50 H         140.4992  140.7861  172.6223 H       1  UNL1        0.1437
     51 H         140.1888  139.2269  172.0057 H       1  UNL1        0.1437
@<TRIPOS>BOND
     1    17    18    1
     2    18    19    1
     3    19    20    1
     4    20    21    1
     5    21     7    1
     6     7     8   ar
     7     8     9   ar
     8     9    10   ar
     9    10    11   ar
    10    11    12   ar
    11    12    24    1
    12    24    25   ar
    13    25    26   ar
    14    26    27   ar
    15    27    28   ar
    16    28    29   ar
    17    12    13   ar
    18    13     1    1
    19     1     2   ar
    20     2     3   ar
    21     3     4   ar
    22     4    30    1
    23    30    31    1
    24    31    32    1
    25    32    33    1
    26    33    34    1
    27    34    37    1
    28    37    38   ar
    29    38    39   ar
    30    39    40   ar
    31    40    43    1
    32    43    44   ar
    33    44    45   ar
    34    45    46   ar
    35    46    47    1
    36    46    48   ar
    37    48    49   ar
    38    40    41   ar
    39    34    35    1
    40    35    36    1
    41     4     5   ar
    42     5     6   ar
    43    13    14   ar
    44    14    15   ar
    45    15    16   ar
    46    21    22    1
    47    22    23    1
    48    23    18    1
    49    16     7   ar
    50    15    10   ar
    51    29    24   ar
    52     6     1   ar
    53    36    31    1
    54    41    37   ar
    55    49    43   ar
    56    47    50    1
    57    47    51    1
    58    41    42    1
