@<TRIPOS>MOLECULE
*****
 38 44 0 0 0
SMALL
GASTEIGER

@<TRIPOS>ATOM
      1 C         138.5076  141.8679  164.4481 C.3     1  UNL1        0.0955
      2 C         138.9200  143.1502  165.1083 C.3     1  UNL1        0.0287
      3 C         138.9246  144.4294  164.3250 C.3     1  UNL1        0.0193
      4 C         138.5169  144.4265  162.8815 C.3     1  UNL1        0.0700
      5 C         138.1045  143.1443  162.2213 C.3     1  UNL1        0.0193
      6 C         138.0999  141.8649  163.0045 C.3     1  UNL1        0.0287
      7 C         138.4984  143.7005  163.2698 C.3     1  UNL1        0.1562
      8 O         138.4942  142.5438  163.9781 O.3     1  UNL1       -0.3571
      9 N         138.5215  145.7057  162.0982 N.3     1  UNL1       -0.2926
     10 H         138.2728  146.4505  162.7492 H       1  UNL1        0.1236
     11 C         139.7683  146.1474  161.3909 C.3     1  UNL1        0.1152
     12 C         140.9206  145.1990  161.2392 C.ar    1  UNL1        0.0782
     13 C         141.2051  144.5716  159.9068 C.ar    1  UNL1        0.0195
     14 C         142.3573  143.6232  159.7550 C.ar    1  UNL1        0.0430
     15 C         143.2250  143.3022  160.9357 C.ar    1  UNL1        0.1916
     16 C         142.9405  143.9296  162.2682 C.ar    1  UNL1        0.2598
     17 N         141.7883  144.8780  162.4199 N.ar    1  UNL1       -0.2121
     18 O         143.8081  143.6087  163.4489 O.3     1  UNL1       -0.4541
     19 C         144.9603  142.6603  163.2972 C.3     1  UNL1        0.2543
     20 C         145.2449  142.0329  161.9648 C.3     1  UNL1        0.2528
     21 O         144.3772  142.3538  160.7840 O.3     1  UNL1       -0.4667
     22 C         138.5029  140.5887  165.2313 C.3     1  UNL1        0.0604
     23 O         138.9728  141.0716  170.3135 O.2     1  UNL1       -0.2670
     24 C         140.1611  140.4138  169.6770 C.ar    1  UNL1        0.2611
     25 C         141.3196  139.9770  170.5237 C.ar    1  UNL1        0.0623
     26 C         142.5080  139.3193  169.8871 C.ar    1  UNL1        0.0254
     27 C         142.5378  139.0984  168.4038 C.ar    1  UNL1        0.0972
     28 N         143.5782  138.4756  167.5092 N.ar    1  UNL1       -0.2400
     29 C         143.4662  138.3220  166.0214 C.ar    1  UNL1        0.1282
     30 C         142.2405  138.8094  165.3072 C.ar    1  UNL1        0.1588
     31 F         142.1285  138.6558  163.8193 F       1  UNL1       -0.2027
     32 C         141.1268  139.4505  166.0809 C.ar    1  UNL1        0.0500
     33 C         141.3793  139.5352  167.5571 C.ar    1  UNL1        0.0806
     34 N         140.1910  140.1929  168.1936 N.ar    1  UNL1       -0.2915
     35 C         139.2040  140.5147  167.1109 C.3     1  UNL1        0.1402
     36 C         139.7824  140.0559  165.8051 C.3     1  UNL1        0.1335
     37 O         140.0933  139.7084  164.3794 O.3     1  UNL1       -0.3806
     38 H         139.3560  139.9824  163.8117 H       1  UNL1        0.2108
@<TRIPOS>BOND
     1    23    24    2
     2    24    25   ar
     3    25    26   ar
     4    26    27   ar
     5    27    28   ar
     6    28    29   ar
     7    29    30   ar
     8    30    31    1
     9    30    32   ar
    10    32    33   ar
    11    33    34   ar
    12    34    35    1
    13    35    36    1
    14    36    37    1
    15    36    22    1
    16    22     1    1
    17     1     2    1
    18     2     3    1
    19     3     4    1
    20     4     9    1
    21     9    11    1
    22    11    12    1
    23    12    13   ar
    24    13    14   ar
    25    14    15   ar
    26    15    16   ar
    27    16    17   ar
    28    16    18    1
    29    18    19    1
    30    19    20    1
    31    20    21    1
    32     4     5    1
    33     5     6    1
    34     4     7    1
    35     7     8    1
    36    34    24   ar
    37     6     1    1
    38    33    27   ar
    39     8     1    1
    40    36    32    1
    41    17    12   ar
    42    21    15    1
    43    37    38    1
    44     9    10    1
@<TRIPOS>MOLECULE
*****
 38 44 0 0 0
SMALL
GASTEIGER

@<TRIPOS>ATOM
      1 C         138.6985  138.9547  164.1372 C.3     1  UNL1        0.0955
      2 C         138.0734  140.2786  163.8104 C.3     1  UNL1        0.0287
      3 C         137.5509  140.5406  162.4289 C.3     1  UNL1        0.0193
      4 C         137.6535  139.4788  161.3744 C.3     1  UNL1        0.0700
      5 C         138.2786  138.1550  161.7013 C.3     1  UNL1        0.0193
      6 C         138.8011  137.8930  163.0827 C.3     1  UNL1        0.0287
      7 C         137.9539  139.2889  162.1172 C.3     1  UNL1        0.1562
      8 O         138.4264  139.0520  163.3663 O.3     1  UNL1       -0.3571
      9 N         137.1309  139.7408  159.9929 N.3     1  UNL1       -0.2926
     10 H         136.3364  140.3724  160.0935 H       1  UNL1        0.1236
     11 C         138.0302  140.3386  158.9519 C.3     1  UNL1        0.1152
     12 C         139.3189  139.6592  158.5943 C.ar    1  UNL1        0.0782
     13 C         140.6048  140.1138  159.2186 C.ar    1  UNL1        0.0195
     14 C         141.8934  139.4344  158.8610 C.ar    1  UNL1        0.0430
     15 C         141.8962  138.3004  157.8791 C.ar    1  UNL1        0.1916
     16 C         140.6103  137.8458  157.2548 C.ar    1  UNL1        0.2598
     17 N         139.3216  138.5252  157.6124 N.ar    1  UNL1       -0.2121
     18 O         140.6130  136.7119  156.2730 O.3     1  UNL1       -0.4541
     19 C         141.9016  136.0325  155.9154 C.3     1  UNL1        0.2543
     20 C         143.1875  136.4871  156.5396 C.3     1  UNL1        0.2528
     21 O         143.1849  137.6211  157.5216 O.3     1  UNL1       -0.4667
     22 C         139.2210  138.6928  165.5187 C.3     1  UNL1        0.0604
     23 O         138.0564  140.0469  170.3242 O.2     1  UNL1       -0.2670
     24 C         139.3058  140.7050  169.8184 C.ar    1  UNL1        0.2611
     25 C         140.0675  141.6476  170.7022 C.ar    1  UNL1        0.0623
     26 C         141.3169  142.3058  170.1964 C.ar    1  UNL1        0.0254
     27 C         141.8046  142.0214  168.8068 C.ar    1  UNL1        0.0972
     28 N         143.0032  142.5284  168.0474 N.ar    1  UNL1       -0.2400
     29 C         143.3668  142.1490  166.6425 C.ar    1  UNL1        0.1282
     30 C         142.5044  141.1890  165.8779 C.ar    1  UNL1        0.1588
     31 F         142.8680  140.8095  164.4730 F       1  UNL1       -0.2027
     32 C         141.2784  140.6085  166.5181 C.ar    1  UNL1        0.0500
     33 C         141.0428  141.0788  167.9229 C.ar    1  UNL1        0.0806
     34 N         139.7934  140.4207  168.4287 N.ar    1  UNL1       -0.2915
     35 C         139.2569  139.5435  167.3365 C.3     1  UNL1        0.1402
     36 C         140.1746  139.6596  166.1557 C.3     1  UNL1        0.1335
     37 O         140.8931  139.5736  164.8418 O.3     1  UNL1       -0.3806
     38 H         140.4173  138.9678  164.2522 H       1  UNL1        0.2108
@<TRIPOS>BOND
     1    23    24    2
     2    24    25   ar
     3    25    26   ar
     4    26    27   ar
     5    27    28   ar
     6    28    29   ar
     7    29    30   ar
     8    30    31    1
     9    30    32   ar
    10    32    33   ar
    11    33    34   ar
    12    34    35    1
    13    35    36    1
    14    36    37    1
    15    36    22    1
    16    22     1    1
    17     1     2    1
    18     2     3    1
    19     3     4    1
    20     4     9    1
    21     9    11    1
    22    11    12    1
    23    12    13   ar
    24    13    14   ar
    25    14    15   ar
    26    15    16   ar
    27    16    17   ar
    28    16    18    1
    29    18    19    1
    30    19    20    1
    31    20    21    1
    32     4     5    1
    33     5     6    1
    34     4     7    1
    35     7     8    1
    36    34    24   ar
    37     6     1    1
    38    33    27   ar
    39     8     1    1
    40    36    32    1
    41    17    12   ar
    42    21    15    1
    43    37    38    1
    44     9    10    1
@<TRIPOS>MOLECULE
*****
 38 44 0 0 0
SMALL
GASTEIGER

@<TRIPOS>ATOM
      1 C         138.2939  141.6603  164.7442 C.3     1  UNL1        0.0955
      2 C         139.1901  142.5889  165.5088 C.3     1  UNL1        0.0287
      3 C         140.0536  142.0571  166.6141 C.3     1  UNL1        0.0193
      4 C         140.0208  140.5967  166.9548 C.3     1  UNL1        0.0700
      5 C         139.1246  139.6681  166.1902 C.3     1  UNL1        0.0193
      6 C         138.2612  140.1999  165.0849 C.3     1  UNL1        0.0287
      7 C         139.5296  140.8417  166.3409 C.3     1  UNL1        0.1562
      8 O         138.7489  141.3225  165.3415 O.3     1  UNL1       -0.3571
      9 N         140.8843  140.0648  168.0601 N.3     1  UNL1       -0.2926
     10 H         140.4087  139.2448  168.4366 H       1  UNL1        0.1236
     11 C         142.2980  139.6526  167.7750 C.3     1  UNL1        0.1152
     12 C         142.8796  139.8631  166.4084 C.ar    1  UNL1        0.0782
     13 C         143.1006  138.6911  165.4988 C.ar    1  UNL1        0.0195
     14 C         143.6822  138.9015  164.1322 C.ar    1  UNL1        0.0430
     15 C         144.0427  140.2839  163.6753 C.ar    1  UNL1        0.1916
     16 C         143.8217  141.4560  164.5849 C.ar    1  UNL1        0.2598
     17 N         143.2402  141.2456  165.9515 N.ar    1  UNL1       -0.2121
     18 O         144.1822  142.8384  164.1280 O.3     1  UNL1       -0.4541
     19 C         144.7638  143.0488  162.7614 C.3     1  UNL1        0.2543
     20 C         144.9848  141.8769  161.8518 C.3     1  UNL1        0.2528
     21 O         144.6243  140.4943  162.3087 O.3     1  UNL1       -0.4667
     22 C         137.4305  142.1921  163.6389 C.3     1  UNL1        0.0604
     23 O         140.3047  146.1409  162.0806 O.2     1  UNL1       -0.2670
     24 C         140.0926  145.1138  161.0082 C.ar    1  UNL1        0.2611
     25 C         140.6995  145.3105  159.6507 C.ar    1  UNL1        0.0623
     26 C         140.4874  144.2834  158.5783 C.ar    1  UNL1        0.0254
     27 C         139.6683  143.0596  158.8634 C.ar    1  UNL1        0.0972
     28 N         139.2955  141.8851  157.9963 N.ar    1  UNL1       -0.2400
     29 C         138.4570  140.7181  158.4265 C.ar    1  UNL1        0.1282
     30 C         137.9156  140.6583  159.8241 C.ar    1  UNL1        0.1588
     31 F         137.0772  139.4913  160.2543 F       1  UNL1       -0.2027
     32 C         138.2127  141.7655  160.7915 C.ar    1  UNL1        0.0500
     33 C         139.0613  142.8629  160.2209 C.ar    1  UNL1        0.0806
     34 N         139.2735  143.8900  161.2933 N.ar    1  UNL1       -0.2915
     35 C         138.5560  143.4274  162.5266 C.3     1  UNL1        0.1402
     36 C         137.9004  142.1144  162.2165 C.3     1  UNL1        0.1335
     37 O         137.1466  140.8176  162.2037 O.3     1  UNL1       -0.3806
     38 H         136.7443  140.6689  163.0738 H       1  UNL1        0.2108
@<TRIPOS>BOND
     1    23    24    2
     2    24    25   ar
     3    25    26   ar
     4    26    27   ar
     5    27    28   ar
     6    28    29   ar
     7    29    30   ar
     8    30    31    1
     9    30    32   ar
    10    32    33   ar
    11    33    34   ar
    12    34    35    1
    13    35    36    1
    14    36    37    1
    15    36    22    1
    16    22     1    1
    17     1     2    1
    18     2     3    1
    19     3     4    1
    20     4     9    1
    21     9    11    1
    22    11    12    1
    23    12    13   ar
    24    13    14   ar
    25    14    15   ar
    26    15    16   ar
    27    16    17   ar
    28    16    18    1
    29    18    19    1
    30    19    20    1
    31    20    21    1
    32     4     5    1
    33     5     6    1
    34     4     7    1
    35     7     8    1
    36    34    24   ar
    37     6     1    1
    38    33    27   ar
    39     8     1    1
    40    36    32    1
    41    17    12   ar
    42    21    15    1
    43    37    38    1
    44     9    10    1
@<TRIPOS>MOLECULE
*****
 38 44 0 0 0
SMALL
GASTEIGER

@<TRIPOS>ATOM
      1 C         141.9550  143.0324  165.1306 C.3     1  UNL1        0.0955
      2 C         140.5142  143.3399  165.4132 C.3     1  UNL1        0.0287
      3 C         139.6857  142.3801  166.2147 C.3     1  UNL1        0.0193
      4 C         140.2978  141.1129  166.7336 C.3     1  UNL1        0.0700
      5 C         141.7385  140.8054  166.4510 C.3     1  UNL1        0.0193
      6 C         142.5671  141.7651  165.6495 C.3     1  UNL1        0.0287
      7 C         140.7917  141.6082  166.2990 C.3     1  UNL1        0.1562
      8 O         141.5409  142.4760  165.5743 O.3     1  UNL1       -0.3571
      9 N         139.4693  140.1531  167.5351 N.3     1  UNL1       -0.2926
     10 H         138.8545  140.7152  168.1237 H       1  UNL1        0.1236
     11 C         138.6013  139.1481  166.8377 C.3     1  UNL1        0.1152
     12 C         138.7916  138.8798  165.3741 C.ar    1  UNL1        0.0782
     13 C         139.6605  137.7418  164.9271 C.ar    1  UNL1        0.0195
     14 C         139.8508  137.4735  163.4636 C.ar    1  UNL1        0.0430
     15 C         139.1723  138.3432  162.4472 C.ar    1  UNL1        0.1916
     16 C         138.3033  139.4813  162.8942 C.ar    1  UNL1        0.2598
     17 N         138.1130  139.7496  164.3577 N.ar    1  UNL1       -0.2121
     18 O         137.6247  140.3510  161.8779 O.3     1  UNL1       -0.4541
     19 C         137.8151  140.0827  160.4144 C.3     1  UNL1        0.2543
     20 C         138.6840  138.9448  159.9673 C.3     1  UNL1        0.2528
     21 O         139.3626  138.0750  160.9837 O.3     1  UNL1       -0.4667
     22 C         142.7835  143.9921  164.3291 C.3     1  UNL1        0.0604
     23 O         139.2911  146.2610  161.3394 O.2     1  UNL1       -0.2670
     24 C         140.3183  145.4949  160.5597 C.ar    1  UNL1        0.2611
     25 C         140.2472  145.4556  159.0620 C.ar    1  UNL1        0.0623
     26 C         141.2744  144.6895  158.2822 C.ar    1  UNL1        0.0254
     27 C         142.3727  143.9628  159.0003 C.ar    1  UNL1        0.0972
     28 N         143.5185  143.1295  158.4872 N.ar    1  UNL1       -0.2400
     29 C         144.5530  142.4553  159.3388 C.ar    1  UNL1        0.1282
     30 C         144.4954  142.5846  160.8321 C.ar    1  UNL1        0.1588
     31 F         145.5300  141.9104  161.6836 F       1  UNL1       -0.2027
     32 C         143.4033  143.3880  161.4738 C.ar    1  UNL1        0.0500
     33 C         142.4438  144.0021  160.4980 C.ar    1  UNL1        0.0806
     34 N         141.4166  144.7682  161.2778 N.ar    1  UNL1       -0.2915
     35 C         141.7413  144.6275  162.7354 C.3     1  UNL1        0.1402
     36 C         142.9691  143.7745  162.8566 C.3     1  UNL1        0.1335
     37 O         144.1582  142.9669  163.2856 O.3     1  UNL1       -0.3806
     38 H         144.2245  142.9780  164.2532 H       1  UNL1        0.2108
@<TRIPOS>BOND
     1    23    24    2
     2    24    25   ar
     3    25    26   ar
     4    26    27   ar
     5    27    28   ar
     6    28    29   ar
     7    29    30   ar
     8    30    31    1
     9    30    32   ar
    10    32    33   ar
    11    33    34   ar
    12    34    35    1
    13    35    36    1
    14    36    37    1
    15    36    22    1
    16    22     1    1
    17     1     2    1
    18     2     3    1
    19     3     4    1
    20     4     9    1
    21     9    11    1
    22    11    12    1
    23    12    13   ar
    24    13    14   ar
    25    14    15   ar
    26    15    16   ar
    27    16    17   ar
    28    16    18    1
    29    18    19    1
    30    19    20    1
    31    20    21    1
    32     4     5    1
    33     5     6    1
    34     4     7    1
    35     7     8    1
    36    34    24   ar
    37     6     1    1
    38    33    27   ar
    39     8     1    1
    40    36    32    1
    41    17    12   ar
    42    21    15    1
    43    37    38    1
    44     9    10    1
@<TRIPOS>MOLECULE
*****
 38 44 0 0 0
SMALL
GASTEIGER

@<TRIPOS>ATOM
      1 C         138.7440  139.0139  164.1516 C.3     1  UNL1        0.0955
      2 C         138.0730  140.3153  163.8254 C.3     1  UNL1        0.0287
      3 C         137.5621  140.5688  162.4380 C.3     1  UNL1        0.0193
      4 C         137.7222  139.5208  161.3768 C.3     1  UNL1        0.0700
      5 C         138.3931  138.2195  161.7030 C.3     1  UNL1        0.0193
      6 C         138.9040  137.9660  163.0903 C.3     1  UNL1        0.0287
      7 C         138.0183  139.3363  162.1227 C.3     1  UNL1        0.1562
      8 O         138.4802  139.1072  163.3772 O.3     1  UNL1       -0.3571
      9 N         137.2114  139.7743  159.9894 N.3     1  UNL1       -0.2926
     10 H         136.4034  140.3901  160.0810 H       1  UNL1        0.1236
     11 C         138.1113  140.3909  158.9599 C.3     1  UNL1        0.1152
     12 C         139.2737  141.2361  159.3895 C.ar    1  UNL1        0.0782
     13 C         139.1385  142.7293  159.4357 C.ar    1  UNL1        0.0195
     14 C         140.3008  143.5746  159.8653 C.ar    1  UNL1        0.0430
     15 C         141.5983  142.9267  160.2485 C.ar    1  UNL1        0.1916
     16 C         141.7334  141.4336  160.2022 C.ar    1  UNL1        0.2598
     17 N         140.5711  140.5883  159.7727 N.ar    1  UNL1       -0.2121
     18 O         143.0308  140.7856  160.5854 O.3     1  UNL1       -0.4541
     19 C         144.1931  141.6309  161.0149 C.3     1  UNL1        0.2543
     20 C         144.0581  143.1241  161.0612 C.3     1  UNL1        0.2528
     21 O         142.7606  143.7721  160.6780 O.3     1  UNL1       -0.4667
     22 C         139.2548  138.7605  165.5390 C.3     1  UNL1        0.0604
     23 O         138.1092  140.0864  170.3569 O.2     1  UNL1       -0.2670
     24 C         139.3532  140.7523  169.8479 C.ar    1  UNL1        0.2611
     25 C         140.1155  141.6938  170.7324 C.ar    1  UNL1        0.0623
     26 C         141.3594  142.3597  170.2234 C.ar    1  UNL1        0.0254
     27 C         141.8411  142.0841  168.8299 C.ar    1  UNL1        0.0972
     28 N         143.0337  142.5999  168.0669 N.ar    1  UNL1       -0.2400
     29 C         143.3917  142.2288  166.6583 C.ar    1  UNL1        0.1282
     30 C         142.5294  141.2689  165.8934 C.ar    1  UNL1        0.1588
     31 F         142.8874  140.8978  164.4849 F       1  UNL1       -0.2027
     32 C         141.3092  140.6801  166.5371 C.ar    1  UNL1        0.0500
     33 C         141.0789  141.1426  167.9453 C.ar    1  UNL1        0.0806
     34 N         139.8349  140.4767  168.4543 N.ar    1  UNL1       -0.2915
     35 C         139.2964  139.6026  167.3607 C.3     1  UNL1        0.1402
     36 C         140.2076  139.7283  166.1758 C.3     1  UNL1        0.1335
     37 O         140.9196  139.6517  164.8578 O.3     1  UNL1       -0.3806
     38 H         140.4433  139.0468  164.2677 H       1  UNL1        0.2108
@<TRIPOS>BOND
     1    23    24    2
     2    24    25   ar
     3    25    26   ar
     4    26    27   ar
     5    27    28   ar
     6    28    29   ar
     7    29    30   ar
     8    30    31    1
     9    30    32   ar
    10    32    33   ar
    11    33    34   ar
    12    34    35    1
    13    35    36    1
    14    36    37    1
    15    36    22    1
    16    22     1    1
    17     1     2    1
    18     2     3    1
    19     3     4    1
    20     4     9    1
    21     9    11    1
    22    11    12    1
    23    12    13   ar
    24    13    14   ar
    25    14    15   ar
    26    15    16   ar
    27    16    17   ar
    28    16    18    1
    29    18    19    1
    30    19    20    1
    31    20    21    1
    32     4     5    1
    33     5     6    1
    34     4     7    1
    35     7     8    1
    36    34    24   ar
    37     6     1    1
    38    33    27   ar
    39     8     1    1
    40    36    32    1
    41    17    12   ar
    42    21    15    1
    43    37    38    1
    44     9    10    1
@<TRIPOS>MOLECULE
*****
 38 44 0 0 0
SMALL
GASTEIGER

@<TRIPOS>ATOM
      1 C         143.9771  139.8680  164.3207 C.3     1  UNL1        0.0955
      2 C         144.3260  141.3053  164.5710 C.3     1  UNL1        0.0287
      3 C         144.7096  142.1944  163.4255 C.3     1  UNL1        0.0193
      4 C         144.7443  141.6464  162.0296 C.3     1  UNL1        0.0700
      5 C         144.3954  140.2092  161.7793 C.3     1  UNL1        0.0193
      6 C         144.0118  139.3199  162.9249 C.3     1  UNL1        0.0287
      7 C         144.5280  141.1206  162.6254 C.3     1  UNL1        0.1562
      8 O         144.1812  140.3166  163.6611 O.3     1  UNL1       -0.3571
      9 N         145.1279  142.5355  160.8841 N.3     1  UNL1       -0.2926
     10 H         145.8397  142.0370  160.3500 H       1  UNL1        0.1236
     11 C         144.0865  142.9858  159.9030 C.3     1  UNL1        0.1152
     12 C         142.6531  143.0999  160.3301 C.ar    1  UNL1        0.0782
     13 C         141.5803  142.3991  159.5505 C.ar    1  UNL1        0.0195
     14 C         140.1469  142.5131  159.9776 C.ar    1  UNL1        0.0430
     15 C         139.7863  143.3280  161.1842 C.ar    1  UNL1        0.1916
     16 C         140.8592  144.0288  161.9638 C.ar    1  UNL1        0.2598
     17 N         142.2926  143.9148  161.5368 N.ar    1  UNL1       -0.2121
     18 O         140.4988  144.8436  163.1705 O.3     1  UNL1       -0.4541
     19 C         139.0654  144.9577  163.5975 C.3     1  UNL1        0.2543
     20 C         137.9925  144.2569  162.8180 C.3     1  UNL1        0.2528
     21 O         138.3529  143.4420  161.6113 O.3     1  UNL1       -0.4667
     22 C         143.5935  138.9788  165.4663 C.3     1  UNL1        0.0604
     23 O         143.5557  140.7429  170.2797 O.2     1  UNL1       -0.2670
     24 C         142.1821  140.4438  169.7564 C.ar    1  UNL1        0.2611
     25 C         140.9821  140.6700  170.6274 C.ar    1  UNL1        0.0623
     26 C         139.6085  140.3710  170.1041 C.ar    1  UNL1        0.0254
     27 C         139.4350  139.8456  168.7099 C.ar    1  UNL1        0.0972
     28 N         138.2005  139.4648  167.9344 N.ar    1  UNL1       -0.2400
     29 C         138.1833  138.9467  166.5268 C.ar    1  UNL1        0.1282
     30 C         139.4702  138.7715  165.7763 C.ar    1  UNL1        0.1588
     31 F         139.4529  138.2534  164.3688 F       1  UNL1       -0.2027
     32 C         140.7743  139.1143  166.4334 C.ar    1  UNL1        0.0500
     33 C         140.6350  139.6194  167.8390 C.ar    1  UNL1        0.0806
     34 N         142.0086  139.9185  168.3622 N.ar    1  UNL1       -0.2915
     35 C         142.9968  139.5982  167.2801 C.3     1  UNL1        0.1402
     36 C         142.2339  139.1012  166.0880 C.3     1  UNL1        0.1335
     37 O         141.7552  138.5786  164.7660 O.3     1  UNL1       -0.3806
     38 H         142.5162  138.4244  164.1846 H       1  UNL1        0.2108
@<TRIPOS>BOND
     1    23    24    2
     2    24    25   ar
     3    25    26   ar
     4    26    27   ar
     5    27    28   ar
     6    28    29   ar
     7    29    30   ar
     8    30    31    1
     9    30    32   ar
    10    32    33   ar
    11    33    34   ar
    12    34    35    1
    13    35    36    1
    14    36    37    1
    15    36    22    1
    16    22     1    1
    17     1     2    1
    18     2     3    1
    19     3     4    1
    20     4     9    1
    21     9    11    1
    22    11    12    1
    23    12    13   ar
    24    13    14   ar
    25    14    15   ar
    26    15    16   ar
    27    16    17   ar
    28    16    18    1
    29    18    19    1
    30    19    20    1
    31    20    21    1
    32     4     5    1
    33     5     6    1
    34     4     7    1
    35     7     8    1
    36    34    24   ar
    37     6     1    1
    38    33    27   ar
    39     8     1    1
    40    36    32    1
    41    17    12   ar
    42    21    15    1
    43    37    38    1
    44     9    10    1
@<TRIPOS>MOLECULE
*****
 38 44 0 0 0
SMALL
GASTEIGER

@<TRIPOS>ATOM
      1 C         139.1373  138.2881  162.1643 C.3     1  UNL1        0.0955
      2 C         137.8306  139.0190  162.0705 C.3     1  UNL1        0.0287
      3 C         137.4292  139.6754  160.7829 C.3     1  UNL1        0.0193
      4 C         138.3343  139.6010  159.5890 C.3     1  UNL1        0.0700
      5 C         139.6408  138.8701  159.6828 C.3     1  UNL1        0.0193
      6 C         140.0423  138.2137  160.9704 C.3     1  UNL1        0.0287
      7 C         138.5972  139.2256  160.2732 C.3     1  UNL1        0.1562
      8 O         138.9602  138.6321  161.4374 O.3     1  UNL1       -0.3571
      9 N         137.9328  140.2573  158.3014 N.3     1  UNL1       -0.2926
     10 H         136.9341  140.0871  158.1829 H       1  UNL1        0.1236
     11 C         138.1465  141.7299  158.1118 C.3     1  UNL1        0.1152
     12 C         139.0364  142.4859  159.0534 C.ar    1  UNL1        0.0782
     13 C         140.4877  142.6748  158.7248 C.ar    1  UNL1        0.0195
     14 C         141.3776  143.4309  159.6663 C.ar    1  UNL1        0.0430
     15 C         140.8162  143.9981  160.9364 C.ar    1  UNL1        0.1916
     16 C         139.3649  143.8092  161.2649 C.ar    1  UNL1        0.2598
     17 N         138.4750  143.0531  160.3235 N.ar    1  UNL1       -0.2121
     18 O         138.8035  144.3763  162.5350 O.3     1  UNL1       -0.4541
     19 C         139.6934  145.1324  163.4765 C.3     1  UNL1        0.2543
     20 C         141.1447  145.3213  163.1480 C.3     1  UNL1        0.2528
     21 O         141.7062  144.7541  161.8779 O.3     1  UNL1       -0.4667
     22 C         139.5387  137.6317  163.4519 C.3     1  UNL1        0.0604
     23 O         143.7854  140.5018  163.3456 O.2     1  UNL1       -0.2670
     24 C         143.0052  140.6599  164.6169 C.ar    1  UNL1        0.2611
     25 C         143.4977  141.5865  165.6888 C.ar    1  UNL1        0.0623
     26 C         142.7174  141.7446  166.9601 C.ar    1  UNL1        0.0254
     27 C         141.4447  140.9763  167.1596 C.ar    1  UNL1        0.0972
     28 N         140.4737  140.9372  168.3110 N.ar    1  UNL1       -0.2400
     29 C         139.2253  140.1076  168.3680 C.ar    1  UNL1        0.1282
     30 C         138.8594  139.2230  167.2132 C.ar    1  UNL1        0.1588
     31 F         137.6110  138.3934  167.2701 F       1  UNL1       -0.2027
     32 C         139.7419  139.1680  166.0015 C.ar    1  UNL1        0.0500
     33 C         140.9523  140.0498  166.0877 C.ar    1  UNL1        0.0806
     34 N         141.7325  139.8916  164.8164 N.ar    1  UNL1       -0.2915
     35 C         141.0043  138.9120  163.9445 C.3     1  UNL1        0.1402
     36 C         139.7740  138.4648  164.6769 C.3     1  UNL1        0.1335
     37 O         138.4946  137.8434  165.1533 O.3     1  UNL1       -0.3806
     38 H         138.1565  137.2386  164.4745 H       1  UNL1        0.2108
@<TRIPOS>BOND
     1    23    24    2
     2    24    25   ar
     3    25    26   ar
     4    26    27   ar
     5    27    28   ar
     6    28    29   ar
     7    29    30   ar
     8    30    31    1
     9    30    32   ar
    10    32    33   ar
    11    33    34   ar
    12    34    35    1
    13    35    36    1
    14    36    37    1
    15    36    22    1
    16    22     1    1
    17     1     2    1
    18     2     3    1
    19     3     4    1
    20     4     9    1
    21     9    11    1
    22    11    12    1
    23    12    13   ar
    24    13    14   ar
    25    14    15   ar
    26    15    16   ar
    27    16    17   ar
    28    16    18    1
    29    18    19    1
    30    19    20    1
    31    20    21    1
    32     4     5    1
    33     5     6    1
    34     4     7    1
    35     7     8    1
    36    34    24   ar
    37     6     1    1
    38    33    27   ar
    39     8     1    1
    40    36    32    1
    41    17    12   ar
    42    21    15    1
    43    37    38    1
    44     9    10    1
@<TRIPOS>MOLECULE
*****
 38 44 0 0 0
SMALL
GASTEIGER

@<TRIPOS>ATOM
      1 C         144.3872  140.7338  162.2965 C.3     1  UNL1        0.0955
      2 C         143.8571  140.0848  161.0522 C.3     1  UNL1        0.0287
      3 C         143.8255  140.8500  159.7625 C.3     1  UNL1        0.0193
      4 C         144.3239  142.2640  159.7169 C.3     1  UNL1        0.0700
      5 C         144.8539  142.9129  160.9610 C.3     1  UNL1        0.0193
      6 C         144.8856  142.1478  162.2509 C.3     1  UNL1        0.0287
      7 C         144.3612  141.8849  160.4469 C.3     1  UNL1        0.1562
      8 O         144.3898  141.1930  161.6131 O.3     1  UNL1       -0.3571
      9 N         144.2923  143.0292  158.4271 N.3     1  UNL1       -0.2926
     10 H         144.4685  142.3563  157.6811 H       1  UNL1        0.1236
     11 C         143.0616  143.7938  158.0387 C.3     1  UNL1        0.1152
     12 C         141.8361  143.7308  158.9014 C.ar    1  UNL1        0.0782
     13 C         140.6680  142.8873  158.4843 C.ar    1  UNL1        0.0195
     14 C         139.4424  142.8242  159.3469 C.ar    1  UNL1        0.0430
     15 C         139.3850  143.6046  160.6265 C.ar    1  UNL1        0.1916
     16 C         140.5531  144.4481  161.0436 C.ar    1  UNL1        0.2598
     17 N         141.7786  144.5112  160.1811 N.ar    1  UNL1       -0.2121
     18 O         140.4957  145.2286  162.3233 O.3     1  UNL1       -0.4541
     19 C         139.2702  145.1655  163.1859 C.3     1  UNL1        0.2543
     20 C         138.1021  144.3221  162.7688 C.3     1  UNL1        0.2528
     21 O         138.1594  143.5416  161.4891 O.3     1  UNL1       -0.4667
     22 C         144.4188  139.9686  163.5863 C.3     1  UNL1        0.0604
     23 O         140.3112  136.9795  162.8966 O.2     1  UNL1       -0.2670
     24 C         140.1828  137.8832  164.0870 C.ar    1  UNL1        0.2611
     25 C         138.9416  137.8436  164.9282 C.ar    1  UNL1        0.0623
     26 C         138.8131  138.7472  166.1186 C.ar    1  UNL1        0.0254
     27 C         139.9259  139.6905  166.4677 C.ar    1  UNL1        0.0972
     28 N         140.0700  140.6932  167.5831 N.ar    1  UNL1       -0.2400
     29 C         141.2594  141.5791  167.8077 C.ar    1  UNL1        0.1282
     30 C         142.4344  141.5071  166.8781 C.ar    1  UNL1        0.1588
     31 F         143.6238  142.3930  167.1026 F       1  UNL1       -0.2027
     32 C         142.4201  140.5490  165.7240 C.ar    1  UNL1        0.0500
     33 C         141.1671  139.7301  165.6264 C.ar    1  UNL1        0.0806
     34 N         141.2956  138.8264  164.4361 N.ar    1  UNL1       -0.2915
     35 C         142.6279  139.0869  163.7980 C.3     1  UNL1        0.1402
     36 C         143.3229  140.1515  164.5939 C.3     1  UNL1        0.1335
     37 O         144.2469  141.1779  165.1793 O.3     1  UNL1       -0.3806
     38 H         145.0588  141.2212  164.6502 H       1  UNL1        0.2108
@<TRIPOS>BOND
     1    23    24    2
     2    24    25   ar
     3    25    26   ar
     4    26    27   ar
     5    27    28   ar
     6    28    29   ar
     7    29    30   ar
     8    30    31    1
     9    30    32   ar
    10    32    33   ar
    11    33    34   ar
    12    34    35    1
    13    35    36    1
    14    36    37    1
    15    36    22    1
    16    22     1    1
    17     1     2    1
    18     2     3    1
    19     3     4    1
    20     4     9    1
    21     9    11    1
    22    11    12    1
    23    12    13   ar
    24    13    14   ar
    25    14    15   ar
    26    15    16   ar
    27    16    17   ar
    28    16    18    1
    29    18    19    1
    30    19    20    1
    31    20    21    1
    32     4     5    1
    33     5     6    1
    34     4     7    1
    35     7     8    1
    36    34    24   ar
    37     6     1    1
    38    33    27   ar
    39     8     1    1
    40    36    32    1
    41    17    12   ar
    42    21    15    1
    43    37    38    1
    44     9    10    1
@<TRIPOS>MOLECULE
*****
 38 44 0 0 0
SMALL
GASTEIGER

@<TRIPOS>ATOM
      1 C         138.5446  138.3236  163.2834 C.3     1  UNL1        0.0955
      2 C         138.2726  139.7365  163.7076 C.3     1  UNL1        0.0287
      3 C         138.2939  140.0999  165.1627 C.3     1  UNL1        0.0193
      4 C         138.5872  139.0506  166.1937 C.3     1  UNL1        0.0700
      5 C         138.8592  137.6378  165.7694 C.3     1  UNL1        0.0193
      6 C         138.8380  137.2742  164.3143 C.3     1  UNL1        0.0287
      7 C         138.5865  138.8036  165.4081 C.3     1  UNL1        0.1562
      8 O         138.5673  138.4749  164.0924 O.3     1  UNL1       -0.3571
      9 N         138.6085  139.4140  167.6488 N.3     1  UNL1       -0.2926
     10 H         138.3745  138.5674  168.1673 H       1  UNL1        0.1236
     11 C         139.8588  139.9677  168.2653 C.3     1  UNL1        0.1152
     12 C         140.9728  140.4594  167.3892 C.ar    1  UNL1        0.0782
     13 C         141.1567  141.9311  167.1651 C.ar    1  UNL1        0.0195
     14 C         142.2706  142.4229  166.2890 C.ar    1  UNL1        0.0430
     15 C         143.2006  141.4430  165.6372 C.ar    1  UNL1        0.1916
     16 C         143.0166  139.9713  165.8613 C.ar    1  UNL1        0.2598
     17 N         141.9027  139.4795  166.7373 N.ar    1  UNL1       -0.2121
     18 O         143.9465  138.9913  165.2095 O.3     1  UNL1       -0.4541
     19 C         145.0604  139.4831  164.3334 C.3     1  UNL1        0.2543
     20 C         145.2444  140.9547  164.1093 C.3     1  UNL1        0.2528
     21 O         144.3145  141.9348  164.7611 O.3     1  UNL1       -0.4667
     22 C         138.5234  137.9601  161.8282 C.3     1  UNL1        0.0604
     23 O         137.1541  140.6371  157.6759 O.2     1  UNL1       -0.2670
     24 C         138.6348  140.4139  157.7649 C.ar    1  UNL1        0.2611
     25 C         139.5405  140.9569  156.6997 C.ar    1  UNL1        0.0623
     26 C         141.0211  140.7337  156.7887 C.ar    1  UNL1        0.0254
     27 C         141.5960  139.9673  157.9429 C.ar    1  UNL1        0.0972
     28 N         143.0158  139.5970  158.2856 N.ar    1  UNL1       -0.2400
     29 C         143.4435  138.8156  159.4924 C.ar    1  UNL1        0.1282
     30 C         142.4187  138.3352  160.4767 C.ar    1  UNL1        0.1588
     31 F         142.8464  137.5538  161.6835 F       1  UNL1       -0.2027
     32 C         140.9661  138.6363  160.2543 C.ar    1  UNL1        0.0500
     33 C         140.6903  139.4243  159.0081 C.ar    1  UNL1        0.0806
     34 N         139.2097  139.6475  158.9191 N.ar    1  UNL1       -0.2915
     35 C         138.5705  138.9975  160.1103 C.3     1  UNL1        0.1402
     36 C         139.6560  138.3725  160.9355 C.3     1  UNL1        0.1335
     37 O         140.5048  137.6613  161.9473 O.3     1  UNL1       -0.3806
     38 H         139.9390  137.3008  162.6478 H       1  UNL1        0.2108
@<TRIPOS>BOND
     1    23    24    2
     2    24    25   ar
     3    25    26   ar
     4    26    27   ar
     5    27    28   ar
     6    28    29   ar
     7    29    30   ar
     8    30    31    1
     9    30    32   ar
    10    32    33   ar
    11    33    34   ar
    12    34    35    1
    13    35    36    1
    14    36    37    1
    15    36    22    1
    16    22     1    1
    17     1     2    1
    18     2     3    1
    19     3     4    1
    20     4     9    1
    21     9    11    1
    22    11    12    1
    23    12    13   ar
    24    13    14   ar
    25    14    15   ar
    26    15    16   ar
    27    16    17   ar
    28    16    18    1
    29    18    19    1
    30    19    20    1
    31    20    21    1
    32     4     5    1
    33     5     6    1
    34     4     7    1
    35     7     8    1
    36    34    24   ar
    37     6     1    1
    38    33    27   ar
    39     8     1    1
    40    36    32    1
    41    17    12   ar
    42    21    15    1
    43    37    38    1
    44     9    10    1
