@<TRIPOS>MOLECULE
*****
 33 35 0 0 0
SMALL
GASTEIGER

@<TRIPOS>ATOM
      1 C         139.6139  140.7464  165.7148 C.ar    1  UNL1        0.1094
      2 N         140.5811  141.7380  166.2902 N.ar    1  UNL1       -0.1681
      3 N         140.7529  141.4261  167.7473 N.ar    1  UNL1       -0.2417
      4 C         139.8918  140.2417  168.0725 C.ar    1  UNL1        0.1280
      5 N         139.7582  139.5915  169.4176 N.pl3   1  UNL1       -0.3427
      6 C         139.1878  139.8216  166.8163 C.ar    1  UNL1        0.1032
      7 H         140.2641  139.9417  170.1861 H       1  UNL1        0.1437
      8 H         139.1645  138.8145  169.5319 H       1  UNL1        0.1437
      9 C         138.6513  139.9034  158.9610 C.ar    1  UNL1        0.1401
     10 C         139.9908  139.3447  159.3396 C.ar    1  UNL1        0.0370
     11 C         140.4512  139.4015  160.7661 C.ar    1  UNL1        0.0046
     12 C         139.5721  140.0171  161.8140 C.ar    1  UNL1        0.0179
     13 C         140.0326  140.0740  163.2404 C.ar    1  UNL1        0.0046
     14 C         139.1534  140.6896  164.2883 C.ar    1  UNL1        0.0387
     15 C         137.8138  141.2484  163.9098 C.ar    1  UNL1        0.1003
     16 N         137.3534  141.1915  162.4833 N.ar    1  UNL1       -0.2437
     17 C         138.2326  140.5759  161.4354 C.ar    1  UNL1        0.0843
     18 C         137.7722  140.5190  160.0089 C.ar    1  UNL1        0.0560
     19 O         138.1909  139.8466  157.5346 O.3     1  UNL1       -0.4754
     20 C         136.6190  141.5346  156.3388 C.3     1  UNL1        0.0512
     21 C         137.9968  141.1151  156.7580 C.3     1  UNL1        0.2055
     22 C         138.2266  138.6776  166.6847 C.2     1  UNL1        0.2470
     23 N         138.3807  137.6936  165.5632 N.am    1  UNL1       -0.3252
     24 O         137.1111  138.5176  167.6748 O.2     1  UNL1       -0.2702
     25 H         139.1128  137.7986  164.9133 H       1  UNL1        0.1453
     26 H         137.7498  136.9428  165.4769 H       1  UNL1        0.1453
     27 C         141.6315  142.1682  168.7102 C.3     1  UNL1        0.0903
     28 C         140.5093  143.1202  169.0006 C.3     1  UNL1        0.0246
     29 C         142.7538  141.2162  168.4199 C.3     1  UNL1        0.0246
     30 C         142.5102  142.9103  169.6731 C.3     1  UNL1        0.0543
     31 C         143.8411  142.3407  170.0659 C.3     1  UNL1        0.1391
     32 O         145.0014  143.2554  170.3250 O.3     1  UNL1       -0.3819
     33 H         145.2523  143.7008  169.5006 H       1  UNL1        0.2104
@<TRIPOS>BOND
     1    20    21    1
     2    21    19    1
     3    19     9    1
     4     9    10   ar
     5    10    11   ar
     6    11    12   ar
     7    12    13   ar
     8    13    14   ar
     9    14     1    1
    10     1     2   ar
    11     2     3   ar
    12     3    27    1
    13    27    28    1
    14    27    29    1
    15    27    30    1
    16    30    31    1
    17    31    32    1
    18     3     4   ar
    19     4     5    1
    20     4     6   ar
    21     6    22    1
    22    22    23   am
    23    22    24    2
    24    14    15   ar
    25    15    16   ar
    26    16    17   ar
    27    17    18   ar
    28    18     9   ar
    29    17    12   ar
    30     6     1   ar
    31    32    33    1
    32     5     7    1
    33     5     8    1
    34    23    25    1
    35    23    26    1
@<TRIPOS>MOLECULE
*****
 33 35 0 0 0
SMALL
GASTEIGER

@<TRIPOS>ATOM
      1 C         140.6714  140.3004  165.7710 C.ar    1  UNL1        0.1094
      2 N         141.4333  141.2604  166.6358 N.ar    1  UNL1       -0.1681
      3 N         140.8546  141.1988  168.0183 N.ar    1  UNL1       -0.2417
      4 C         139.7350  140.2006  168.0080 C.ar    1  UNL1        0.1280
      5 N         138.8788  139.8238  169.1806 N.pl3   1  UNL1       -0.3427
      6 C         139.6217  139.6453  166.6191 C.ar    1  UNL1        0.1032
      7 H         139.0310  140.2459  170.0569 H       1  UNL1        0.1437
      8 H         138.1648  139.1545  169.0739 H       1  UNL1        0.1437
      9 C         142.8016  138.3999  159.5180 C.ar    1  UNL1        0.1401
     10 C         143.7081  137.7969  160.5498 C.ar    1  UNL1        0.0370
     11 C         143.4634  138.0564  162.0068 C.ar    1  UNL1        0.0046
     12 C         142.3121  138.9189  162.4319 C.ar    1  UNL1        0.0179
     13 C         142.0674  139.1784  163.8889 C.ar    1  UNL1        0.0046
     14 C         140.9162  140.0409  164.3141 C.ar    1  UNL1        0.0387
     15 C         140.0096  140.6439  163.2822 C.ar    1  UNL1        0.1003
     16 N         140.2544  140.3844  161.8253 N.ar    1  UNL1       -0.2437
     17 C         141.4057  139.5218  161.4001 C.ar    1  UNL1        0.0843
     18 C         141.6504  139.2623  159.9432 C.ar    1  UNL1        0.0560
     19 O         143.0464  138.1404  158.0610 O.3     1  UNL1       -0.4754
     20 C         143.4355  136.3054  156.2634 C.3     1  UNL1        0.0512
     21 C         142.6952  136.8085  157.4671 C.3     1  UNL1        0.2055
     22 C         138.6326  138.6159  166.1591 C.2     1  UNL1        0.2470
     23 N         138.9926  137.6727  165.0497 N.am    1  UNL1       -0.3252
     24 O         137.2831  138.5295  166.8085 O.2     1  UNL1       -0.2702
     25 H         139.8783  137.7293  164.6235 H       1  UNL1        0.1453
     26 H         138.3433  136.9970  164.7479 H       1  UNL1        0.1453
     27 C         141.3147  141.9954  169.2030 C.3     1  UNL1        0.0903
     28 C         140.3786  143.1036  168.8214 C.3     1  UNL1        0.0246
     29 C         142.2508  140.8871  169.5846 C.3     1  UNL1        0.0246
     30 C         141.7748  142.7919  170.3878 C.3     1  UNL1        0.0543
     31 C         143.2340  143.0860  170.5730 C.3     1  UNL1        0.1391
     32 O         143.6630  144.2689  171.3895 O.3     1  UNL1       -0.3819
     33 H         143.3880  145.0858  170.9445 H       1  UNL1        0.2104
@<TRIPOS>BOND
     1    20    21    1
     2    21    19    1
     3    19     9    1
     4     9    10   ar
     5    10    11   ar
     6    11    12   ar
     7    12    13   ar
     8    13    14   ar
     9    14     1    1
    10     1     2   ar
    11     2     3   ar
    12     3    27    1
    13    27    28    1
    14    27    29    1
    15    27    30    1
    16    30    31    1
    17    31    32    1
    18     3     4   ar
    19     4     5    1
    20     4     6   ar
    21     6    22    1
    22    22    23   am
    23    22    24    2
    24    14    15   ar
    25    15    16   ar
    26    16    17   ar
    27    17    18   ar
    28    18     9   ar
    29    17    12   ar
    30     6     1   ar
    31    32    33    1
    32     5     7    1
    33     5     8    1
    34    23    25    1
    35    23    26    1
@<TRIPOS>MOLECULE
*****
 33 35 0 0 0
SMALL
GASTEIGER

@<TRIPOS>ATOM
      1 C         140.0057  141.6591  165.1900 C.ar    1  UNL1        0.1094
      2 N         140.7227  141.6913  166.5071 N.ar    1  UNL1       -0.1681
      3 N         140.1986  140.5650  167.3479 N.ar    1  UNL1       -0.2417
      4 C         139.1577  139.8367  166.5503 C.ar    1  UNL1        0.1280
      5 N         138.3736  138.6421  167.0063 N.pl3   1  UNL1       -0.3427
      6 C         139.0384  140.5129  165.2166 C.ar    1  UNL1        0.1032
      7 H         138.5238  138.2683  167.9046 H       1  UNL1        0.1437
      8 H         137.7087  138.2317  166.4073 H       1  UNL1        0.1437
      9 C         141.6659  145.0213  159.4290 C.ar    1  UNL1        0.1401
     10 C         142.2617  143.6455  159.3836 C.ar    1  UNL1        0.0370
     11 C         142.0488  142.6979  160.5267 C.ar    1  UNL1        0.0046
     12 C         141.2402  143.1261  161.7152 C.ar    1  UNL1        0.0179
     13 C         141.0273  142.1785  162.8583 C.ar    1  UNL1        0.0046
     14 C         140.2186  142.6067  164.0469 C.ar    1  UNL1        0.0387
     15 C         139.6228  143.9826  164.0923 C.ar    1  UNL1        0.1003
     16 N         139.8356  144.9302  162.9492 N.ar    1  UNL1       -0.2437
     17 C         140.6444  144.5019  161.7606 C.ar    1  UNL1        0.0843
     18 C         140.8572  145.4495  160.6175 C.ar    1  UNL1        0.0560
     19 O         141.8788  145.9689  158.2858 O.3     1  UNL1       -0.4754
     20 C         140.0322  146.4695  156.5281 C.3     1  UNL1        0.0512
     21 C         141.2430  145.6940  156.9554 C.3     1  UNL1        0.2055
     22 C         138.1143  140.1131  164.1050 C.2     1  UNL1        0.2470
     23 N         137.0355  141.0519  163.6521 N.am    1  UNL1       -0.3252
     24 O         138.2687  138.7745  163.4459 O.2     1  UNL1       -0.2702
     25 H         136.9341  141.9305  164.0846 H       1  UNL1        0.1453
     26 H         136.4290  140.7894  162.9224 H       1  UNL1        0.1453
     27 C         140.6382  140.2264  168.7414 C.3     1  UNL1        0.0903
     28 C         141.8879  139.6017  168.1955 C.3     1  UNL1        0.0246
     29 C         139.3885  140.8512  169.2874 C.3     1  UNL1        0.0246
     30 C         141.0777  139.8878  170.1350 C.3     1  UNL1        0.0543
     31 C         141.4510  140.9823  171.0905 C.3     1  UNL1        0.1391
     32 O         142.3693  140.6929  172.2407 O.3     1  UNL1       -0.3819
     33 H         141.9344  140.0818  172.8558 H       1  UNL1        0.2104
@<TRIPOS>BOND
     1    20    21    1
     2    21    19    1
     3    19     9    1
     4     9    10   ar
     5    10    11   ar
     6    11    12   ar
     7    12    13   ar
     8    13    14   ar
     9    14     1    1
    10     1     2   ar
    11     2     3   ar
    12     3    27    1
    13    27    28    1
    14    27    29    1
    15    27    30    1
    16    30    31    1
    17    31    32    1
    18     3     4   ar
    19     4     5    1
    20     4     6   ar
    21     6    22    1
    22    22    23   am
    23    22    24    2
    24    14    15   ar
    25    15    16   ar
    26    16    17   ar
    27    17    18   ar
    28    18     9   ar
    29    17    12   ar
    30     6     1   ar
    31    32    33    1
    32     5     7    1
    33     5     8    1
    34    23    25    1
    35    23    26    1
@<TRIPOS>MOLECULE
*****
 33 35 0 0 0
SMALL
GASTEIGER

@<TRIPOS>ATOM
      1 C         140.5924  141.3136  165.2726 C.ar    1  UNL1        0.1094
      2 N         141.3067  141.4733  166.5819 N.ar    1  UNL1       -0.1681
      3 N         140.5806  140.6558  167.6088 N.ar    1  UNL1       -0.2417
      4 C         139.4176  139.9908  166.9342 C.ar    1  UNL1        0.1280
      5 N         138.4221  139.0793  167.5885 N.pl3   1  UNL1       -0.3427
      6 C         139.4248  140.3973  165.4903 C.ar    1  UNL1        0.1032
      7 H         138.5014  138.8710  168.5474 H       1  UNL1        0.1437
      8 H         137.6894  138.6894  167.0590 H       1  UNL1        0.1437
      9 C         141.4253  145.1254  159.6134 C.ar    1  UNL1        0.1401
     10 C         140.3305  145.7197  160.4490 C.ar    1  UNL1        0.0370
     11 C         139.9450  145.0762  161.7479 C.ar    1  UNL1        0.0046
     12 C         140.6542  143.8384  162.2113 C.ar    1  UNL1        0.0179
     13 C         140.2687  143.1949  163.5103 C.ar    1  UNL1        0.0046
     14 C         140.9780  141.9571  163.9736 C.ar    1  UNL1        0.0387
     15 C         142.0728  141.3627  163.1381 C.ar    1  UNL1        0.1003
     16 N         142.4584  142.0062  161.8391 N.ar    1  UNL1       -0.2437
     17 C         141.7490  143.2441  161.3758 C.ar    1  UNL1        0.0843
     18 C         142.1346  143.8876  160.0768 C.ar    1  UNL1        0.0560
     19 O         141.8108  145.7689  158.3145 O.3     1  UNL1       -0.4754
     20 C         140.5528  146.3263  156.1107 C.3     1  UNL1        0.0512
     21 C         141.1698  145.3190  157.0352 C.3     1  UNL1        0.2055
     22 C         138.4379  139.9637  164.4473 C.2     1  UNL1        0.2470
     23 N         137.3915  140.9218  163.9605 N.am    1  UNL1       -0.3252
     24 O         138.4973  138.5719  163.8910 O.2     1  UNL1       -0.2702
     25 H         137.3524  141.8353  164.3255 H       1  UNL1        0.1453
     26 H         136.7437  140.6372  163.2759 H       1  UNL1        0.1453
     27 C         140.9523  140.5261  169.0562 C.3     1  UNL1        0.0903
     28 C         139.9068  141.5398  169.4156 C.3     1  UNL1        0.0246
     29 C         141.9979  139.5122  168.6968 C.3     1  UNL1        0.0246
     30 C         141.3240  140.3962  170.5036 C.3     1  UNL1        0.0543
     31 C         141.0452  141.5231  171.4535 C.3     1  UNL1        0.1391
     32 O         142.1820  142.2845  172.0683 O.3     1  UNL1       -0.3819
     33 H         142.6841  141.6978  172.6554 H       1  UNL1        0.2104
@<TRIPOS>BOND
     1    20    21    1
     2    21    19    1
     3    19     9    1
     4     9    10   ar
     5    10    11   ar
     6    11    12   ar
     7    12    13   ar
     8    13    14   ar
     9    14     1    1
    10     1     2   ar
    11     2     3   ar
    12     3    27    1
    13    27    28    1
    14    27    29    1
    15    27    30    1
    16    30    31    1
    17    31    32    1
    18     3     4   ar
    19     4     5    1
    20     4     6   ar
    21     6    22    1
    22    22    23   am
    23    22    24    2
    24    14    15   ar
    25    15    16   ar
    26    16    17   ar
    27    17    18   ar
    28    18     9   ar
    29    17    12   ar
    30     6     1   ar
    31    32    33    1
    32     5     7    1
    33     5     8    1
    34    23    25    1
    35    23    26    1
@<TRIPOS>MOLECULE
*****
 33 35 0 0 0
SMALL
GASTEIGER

@<TRIPOS>ATOM
      1 C         141.8664  142.4534  165.5201 C.ar    1  UNL1        0.1094
      2 N         140.8803  142.0217  166.5646 N.ar    1  UNL1       -0.1681
      3 N         141.5756  142.0381  167.8936 N.ar    1  UNL1       -0.2417
      4 C         142.9916  142.4800  167.6704 C.ar    1  UNL1        0.1280
      5 N         144.0432  142.6375  168.7284 N.pl3   1  UNL1       -0.3427
      6 C         143.1714  142.7366  166.2035 C.ar    1  UNL1        0.1032
      7 H         143.8278  142.4439  169.6693 H       1  UNL1        0.1437
      8 H         144.9489  142.9346  168.4818 H       1  UNL1        0.1437
      9 C         140.4116  144.2901  159.0579 C.ar    1  UNL1        0.1401
     10 C         140.3121  145.4954  159.9451 C.ar    1  UNL1        0.0370
     11 C         140.5832  145.3691  161.4150 C.ar    1  UNL1        0.0046
     12 C         140.9537  144.0375  161.9977 C.ar    1  UNL1        0.0179
     13 C         141.2248  143.9112  163.4675 C.ar    1  UNL1        0.0046
     14 C         141.5954  142.5796  164.0502 C.ar    1  UNL1        0.0387
     15 C         141.6948  141.3742  163.1629 C.ar    1  UNL1        0.1003
     16 N         141.4237  141.5005  161.6930 N.ar    1  UNL1       -0.2437
     17 C         141.0532  142.8322  161.1104 C.ar    1  UNL1        0.0843
     18 C         140.7821  142.9585  159.6405 C.ar    1  UNL1        0.0560
     19 O         140.1405  144.4163  157.5880 O.3     1  UNL1       -0.4754
     20 C         139.5940  146.6964  156.4689 C.3     1  UNL1        0.0512
     21 C         140.5897  145.6394  156.8449 C.3     1  UNL1        0.2055
     22 C         144.4342  143.1958  165.5370 C.2     1  UNL1        0.2470
     23 N         144.9002  142.5327  164.2749 N.am    1  UNL1       -0.3252
     24 O         145.2313  144.3184  166.1328 O.2     1  UNL1       -0.2702
     25 H         144.3771  141.7960  163.8838 H       1  UNL1        0.1453
     26 H         145.7291  142.8342  163.8375 H       1  UNL1        0.1453
     27 C         140.9627  141.6763  169.2139 C.3     1  UNL1        0.0903
     28 C         140.4786  143.0867  169.3758 C.3     1  UNL1        0.0246
     29 C         141.4469  140.2657  169.0521 C.3     1  UNL1        0.0246
     30 C         140.3498  141.3144  170.5343 C.3     1  UNL1        0.0543
     31 C         139.7083  139.9713  170.7204 C.3     1  UNL1        0.1391
     32 O         138.2401  139.7996  170.4655 O.3     1  UNL1       -0.3819
     33 H         137.7367  140.3117  171.1176 H       1  UNL1        0.2104
@<TRIPOS>BOND
     1    20    21    1
     2    21    19    1
     3    19     9    1
     4     9    10   ar
     5    10    11   ar
     6    11    12   ar
     7    12    13   ar
     8    13    14   ar
     9    14     1    1
    10     1     2   ar
    11     2     3   ar
    12     3    27    1
    13    27    28    1
    14    27    29    1
    15    27    30    1
    16    30    31    1
    17    31    32    1
    18     3     4   ar
    19     4     5    1
    20     4     6   ar
    21     6    22    1
    22    22    23   am
    23    22    24    2
    24    14    15   ar
    25    15    16   ar
    26    16    17   ar
    27    17    18   ar
    28    18     9   ar
    29    17    12   ar
    30     6     1   ar
    31    32    33    1
    32     5     7    1
    33     5     8    1
    34    23    25    1
    35    23    26    1
@<TRIPOS>MOLECULE
*****
 33 35 0 0 0
SMALL
GASTEIGER

@<TRIPOS>ATOM
      1 C         140.0469  140.2717  165.2306 C.ar    1  UNL1        0.1094
      2 N         139.5544  141.1309  166.3572 N.ar    1  UNL1       -0.1681
      3 N         140.4158  140.8626  167.5556 N.ar    1  UNL1       -0.2417
      4 C         141.4405  139.8375  167.1697 C.ar    1  UNL1        0.1280
      5 N         142.5062  139.2761  168.0636 N.pl3   1  UNL1       -0.3427
      6 C         141.2126  139.4722  165.7327 C.ar    1  UNL1        0.1032
      7 H         142.5760  139.5802  168.9974 H       1  UNL1        0.1437
      8 H         143.1358  138.6034  167.7167 H       1  UNL1        0.1437
      9 C         138.1054  141.1342  158.6933 C.ar    1  UNL1        0.1401
     10 C         139.0274  142.2512  159.0831 C.ar    1  UNL1        0.0370
     11 C         139.6001  142.3022  160.4686 C.ar    1  UNL1        0.0046
     12 C         139.2508  141.2360  161.4642 C.ar    1  UNL1        0.0179
     13 C         139.8235  141.2869  162.8496 C.ar    1  UNL1        0.0046
     14 C         139.4742  140.2207  163.8452 C.ar    1  UNL1        0.0387
     15 C         138.5521  139.1036  163.4554 C.ar    1  UNL1        0.1003
     16 N         137.9795  139.0527  162.0699 N.ar    1  UNL1       -0.2437
     17 C         138.3288  140.1189  161.0743 C.ar    1  UNL1        0.0843
     18 C         137.7561  140.0680  159.6889 C.ar    1  UNL1        0.0560
     19 O         137.5327  141.0833  157.3079 O.3     1  UNL1       -0.4754
     20 C         136.9211  143.1497  155.8568 C.3     1  UNL1        0.0512
     21 C         137.9206  142.1216  156.2973 C.3     1  UNL1        0.2055
     22 C         142.0102  138.4816  164.9376 C.2     1  UNL1        0.2470
     23 N         143.4164  138.8063  164.5287 N.am    1  UNL1       -0.3252
     24 O         141.4017  137.1660  164.5513 O.2     1  UNL1       -0.2702
     25 H         143.8159  139.6696  164.7822 H       1  UNL1        0.1453
     26 H         143.9399  138.1560  164.0068 H       1  UNL1        0.1453
     27 C         140.2768  141.5063  168.9032 C.3     1  UNL1        0.0903
     28 C         139.3586  140.4019  169.3361 C.3     1  UNL1        0.0246
     29 C         141.1950  142.6107  168.4704 C.3     1  UNL1        0.0246
     30 C         140.1378  142.1500  170.2509 C.3     1  UNL1        0.0543
     31 C         140.9386  141.6397  171.4121 C.3     1  UNL1        0.1391
     32 O         142.1034  142.4328  171.9262 O.3     1  UNL1       -0.3819
     33 H         142.7983  142.4620  171.2501 H       1  UNL1        0.2104
@<TRIPOS>BOND
     1    20    21    1
     2    21    19    1
     3    19     9    1
     4     9    10   ar
     5    10    11   ar
     6    11    12   ar
     7    12    13   ar
     8    13    14   ar
     9    14     1    1
    10     1     2   ar
    11     2     3   ar
    12     3    27    1
    13    27    28    1
    14    27    29    1
    15    27    30    1
    16    30    31    1
    17    31    32    1
    18     3     4   ar
    19     4     5    1
    20     4     6   ar
    21     6    22    1
    22    22    23   am
    23    22    24    2
    24    14    15   ar
    25    15    16   ar
    26    16    17   ar
    27    17    18   ar
    28    18     9   ar
    29    17    12   ar
    30     6     1   ar
    31    32    33    1
    32     5     7    1
    33     5     8    1
    34    23    25    1
    35    23    26    1
@<TRIPOS>MOLECULE
*****
 33 35 0 0 0
SMALL
GASTEIGER

@<TRIPOS>ATOM
      1 C         142.1639  140.2669  165.5343 C.ar    1  UNL1        0.1094
      2 N         141.1052  140.9980  166.3054 N.ar    1  UNL1       -0.1681
      3 N         141.2295  140.6073  167.7482 N.ar    1  UNL1       -0.2417
      4 C         142.3651  139.6347  167.8689 C.ar    1  UNL1        0.1280
      5 N         142.8398  138.9863  169.1355 N.pl3   1  UNL1       -0.3427
      6 C         142.9426  139.4243  166.5006 C.ar    1  UNL1        0.1032
      7 H         142.3938  139.1890  169.9894 H       1  UNL1        0.1437
      8 H         143.5974  138.3579  169.1128 H       1  UNL1        0.1437
      9 C         143.9982  141.7285  159.0729 C.ar    1  UNL1        0.1401
     10 C         144.6412  142.7159  160.0011 C.ar    1  UNL1        0.0370
     11 C         144.4029  142.6210  161.4791 C.ar    1  UNL1        0.0046
     12 C         143.5217  141.5388  162.0287 C.ar    1  UNL1        0.0179
     13 C         143.2834  141.4440  163.5067 C.ar    1  UNL1        0.0046
     14 C         142.4022  140.3618  164.0563 C.ar    1  UNL1        0.0387
     15 C         141.7592  139.3744  163.1281 C.ar    1  UNL1        0.1003
     16 N         141.9974  139.4692  161.6502 N.ar    1  UNL1       -0.2437
     17 C         142.8787  140.5515  161.1005 C.ar    1  UNL1        0.0843
     18 C         143.1170  140.6463  159.6226 C.ar    1  UNL1        0.0560
     19 O         144.2365  141.8234  157.5950 O.3     1  UNL1       -0.4754
     20 C         144.1032  139.7031  156.0995 C.3     1  UNL1        0.0512
     21 C         144.9167  140.6993  156.8713 C.3     1  UNL1        0.2055
     22 C         144.0962  138.5287  166.1587 C.2     1  UNL1        0.2470
     23 N         144.9735  138.8504  164.9853 N.am    1  UNL1       -0.3252
     24 O         144.3725  137.3111  166.9901 O.2     1  UNL1       -0.2702
     25 H         144.7922  139.6495  164.4396 H       1  UNL1        0.1453
     26 H         145.7306  138.2625  164.7609 H       1  UNL1        0.1453
     27 C         140.3694  141.1022  168.8730 C.3     1  UNL1        0.0903
     28 C         139.3786  140.0107  168.5956 C.3     1  UNL1        0.0246
     29 C         141.3601  142.1938  169.1503 C.3     1  UNL1        0.0246
     30 C         139.5092  141.5972  169.9977 C.3     1  UNL1        0.0543
     31 C         139.8511  142.8807  170.6946 C.3     1  UNL1        0.1391
     32 O         138.8193  143.5782  171.5306 O.3     1  UNL1       -0.3819
     33 H         138.0985  143.8897  170.9612 H       1  UNL1        0.2104
@<TRIPOS>BOND
     1    20    21    1
     2    21    19    1
     3    19     9    1
     4     9    10   ar
     5    10    11   ar
     6    11    12   ar
     7    12    13   ar
     8    13    14   ar
     9    14     1    1
    10     1     2   ar
    11     2     3   ar
    12     3    27    1
    13    27    28    1
    14    27    29    1
    15    27    30    1
    16    30    31    1
    17    31    32    1
    18     3     4   ar
    19     4     5    1
    20     4     6   ar
    21     6    22    1
    22    22    23   am
    23    22    24    2
    24    14    15   ar
    25    15    16   ar
    26    16    17   ar
    27    17    18   ar
    28    18     9   ar
    29    17    12   ar
    30     6     1   ar
    31    32    33    1
    32     5     7    1
    33     5     8    1
    34    23    25    1
    35    23    26    1
@<TRIPOS>MOLECULE
*****
 33 35 0 0 0
SMALL
GASTEIGER

@<TRIPOS>ATOM
      1 C         141.0921  142.6450  165.1741 C.ar    1  UNL1        0.1094
      2 N         140.0532  142.4870  166.2445 N.ar    1  UNL1       -0.1681
      3 N         140.6552  141.6851  167.3601 N.ar    1  UNL1       -0.2417
      4 C         142.0662  141.3474  166.9792 C.ar    1  UNL1        0.1280
      5 N         143.0368  140.5556  167.8043 N.pl3   1  UNL1       -0.3427
      6 C         142.3363  141.9406  165.6281 C.ar    1  UNL1        0.1032
      7 H         142.7648  140.2059  168.6835 H       1  UNL1        0.1437
      8 H         143.9458  140.3855  167.4667 H       1  UNL1        0.1437
      9 C         140.1737  144.8133  158.7162 C.ar    1  UNL1        0.1401
     10 C         140.1281  143.3143  158.7420 C.ar    1  UNL1        0.0370
     11 C         140.3026  142.5808  160.0387 C.ar    1  UNL1        0.0046
     12 C         140.5228  143.3464  161.3097 C.ar    1  UNL1        0.0179
     13 C         140.6974  142.6129  162.6064 C.ar    1  UNL1        0.0046
     14 C         140.9175  143.3785  163.8774 C.ar    1  UNL1        0.0387
     15 C         140.9631  144.8776  163.8516 C.ar    1  UNL1        0.1003
     16 N         140.7886  145.6111  162.5549 N.ar    1  UNL1       -0.2437
     17 C         140.5684  144.8454  161.2839 C.ar    1  UNL1        0.0843
     18 C         140.3939  145.5789  159.9871 C.ar    1  UNL1        0.0560
     19 O         139.9991  145.5468  157.4194 O.3     1  UNL1       -0.4754
     20 C         141.0727  145.9214  155.0834 C.3     1  UNL1        0.0512
     21 C         141.1959  145.8772  156.5777 C.3     1  UNL1        0.2055
     22 C         143.6242  141.8462  164.8652 C.2     1  UNL1        0.2470
     23 N         144.0268  140.5478  164.2309 N.am    1  UNL1       -0.3252
     24 O         144.5097  143.0501  164.7363 O.2     1  UNL1       -0.2702
     25 H         143.4457  139.7576  164.3154 H       1  UNL1        0.1453
     26 H         144.8721  140.4859  163.7302 H       1  UNL1        0.1453
     27 C         139.9672  141.2902  168.6330 C.3     1  UNL1        0.0903
     28 C         140.3955  142.5812  169.2652 C.3     1  UNL1        0.0246
     29 C         139.5387  139.9990  168.0009 C.3     1  UNL1        0.0246
     30 C         139.2790  140.8952  169.9060 C.3     1  UNL1        0.0543
     31 C         139.9671  139.9842  170.8790 C.3     1  UNL1        0.1391
     32 O         140.6470  140.5544  172.0884 O.3     1  UNL1       -0.3819
     33 H         141.4028  141.0948  171.8097 H       1  UNL1        0.2104
@<TRIPOS>BOND
     1    20    21    1
     2    21    19    1
     3    19     9    1
     4     9    10   ar
     5    10    11   ar
     6    11    12   ar
     7    12    13   ar
     8    13    14   ar
     9    14     1    1
    10     1     2   ar
    11     2     3   ar
    12     3    27    1
    13    27    28    1
    14    27    29    1
    15    27    30    1
    16    30    31    1
    17    31    32    1
    18     3     4   ar
    19     4     5    1
    20     4     6   ar
    21     6    22    1
    22    22    23   am
    23    22    24    2
    24    14    15   ar
    25    15    16   ar
    26    16    17   ar
    27    17    18   ar
    28    18     9   ar
    29    17    12   ar
    30     6     1   ar
    31    32    33    1
    32     5     7    1
    33     5     8    1
    34    23    25    1
    35    23    26    1
@<TRIPOS>MOLECULE
*****
 33 35 0 0 0
SMALL
GASTEIGER

@<TRIPOS>ATOM
      1 C         142.8283  140.4492  164.0712 C.ar    1  UNL1        0.1094
      2 N         141.9598  140.1529  165.2578 N.ar    1  UNL1       -0.1681
      3 N         142.3031  141.1332  166.3400 N.ar    1  UNL1       -0.2417
      4 C         143.3839  142.0354  165.8223 C.ar    1  UNL1        0.1280
      5 N         144.0271  143.1625  166.5746 N.pl3   1  UNL1       -0.3427
      6 C         143.7085  141.6127  164.4201 C.ar    1  UNL1        0.1032
      7 H         143.7445  143.3639  167.4959 H       1  UNL1        0.1437
      8 H         144.7319  143.7008  166.1470 H       1  UNL1        0.1437
      9 C         141.8210  137.8922  157.7707 C.ar    1  UNL1        0.1401
     10 C         140.8630  139.0232  158.0005 C.ar    1  UNL1        0.0370
     11 C         140.8728  139.7608  159.3066 C.ar    1  UNL1        0.0046
     12 C         141.8407  139.3674  160.3828 C.ar    1  UNL1        0.0179
     13 C         141.8506  140.1050  161.6889 C.ar    1  UNL1        0.0046
     14 C         142.8185  139.7116  162.7652 C.ar    1  UNL1        0.0387
     15 C         143.7766  138.5805  162.5353 C.ar    1  UNL1        0.1003
     16 N         143.7668  137.8429  161.2293 N.ar    1  UNL1       -0.2437
     17 C         142.7988  138.2364  160.1530 C.ar    1  UNL1        0.0843
     18 C         142.7889  137.4988  158.8469 C.ar    1  UNL1        0.0560
     19 O         141.8112  137.1546  156.4646 O.3     1  UNL1       -0.4754
     20 C         144.0995  136.3407  155.5422 C.3     1  UNL1        0.0512
     21 C         142.7941  136.0481  156.2207 C.3     1  UNL1        0.2055
     22 C         144.7332  142.2428  163.5242 C.2     1  UNL1        0.2470
     23 N         144.4392  143.5513  162.8522 N.am    1  UNL1       -0.3252
     24 O         146.0523  141.5645  163.3001 O.2     1  UNL1       -0.2702
     25 H         143.5735  143.9965  162.9992 H       1  UNL1        0.1453
     26 H         145.1118  143.9648  162.2642 H       1  UNL1        0.1453
     27 C         141.6759  141.1996  167.7008 C.3     1  UNL1        0.0903
     28 C         140.6858  142.2067  167.1954 C.3     1  UNL1        0.0246
     29 C         142.6661  140.1925  168.2063 C.3     1  UNL1        0.0246
     30 C         141.0488  141.2660  169.0618 C.3     1  UNL1        0.0543
     31 C         140.0923  140.1967  169.4999 C.3     1  UNL1        0.1391
     32 O         140.3504  139.4317  170.7640 O.3     1  UNL1       -0.3819
     33 H         141.1540  138.8984  170.6609 H       1  UNL1        0.2104
@<TRIPOS>BOND
     1    20    21    1
     2    21    19    1
     3    19     9    1
     4     9    10   ar
     5    10    11   ar
     6    11    12   ar
     7    12    13   ar
     8    13    14   ar
     9    14     1    1
    10     1     2   ar
    11     2     3   ar
    12     3    27    1
    13    27    28    1
    14    27    29    1
    15    27    30    1
    16    30    31    1
    17    31    32    1
    18     3     4   ar
    19     4     5    1
    20     4     6   ar
    21     6    22    1
    22    22    23   am
    23    22    24    2
    24    14    15   ar
    25    15    16   ar
    26    16    17   ar
    27    17    18   ar
    28    18     9   ar
    29    17    12   ar
    30     6     1   ar
    31    32    33    1
    32     5     7    1
    33     5     8    1
    34    23    25    1
    35    23    26    1
