@<TRIPOS>MOLECULE
*****
 22 24 0 0 0
SMALL
GASTEIGER

@<TRIPOS>ATOM
      1 C         140.6713  140.3214  166.0641 C.ar    1  UNL1        0.0266
      2 C         141.2018  138.9392  165.8229 C.ar    1  UNL1        0.0994
      3 N         140.6694  138.1196  164.6850 N.ar    1  UNL1       -0.2423
      4 C         139.6065  138.6821  163.7884 C.ar    1  UNL1        0.0985
      5 C         138.8945  138.1137  162.5967 C.ar    1  UNL1        0.0392
      6 C         137.9240  139.1447  162.1015 C.ar    1  UNL1        0.0779
      7 N         138.0362  140.3501  162.9871 N.ar    1  UNL1       -0.3165
      8 C         139.0761  140.0642  164.0296 C.ar    1  UNL1        0.0782
      9 C         139.6084  140.8839  165.1675 C.ar    1  UNL1        0.0208
     10 C         140.9966  143.7815  170.0394 C.3     1  UNL1        0.0325
     11 C         141.3532  142.7315  169.0292 C.ar    1  UNL1       -0.0047
     12 C         140.4331  142.1553  167.9942 C.ar    1  UNL1        0.0036
     13 C         141.2037  141.1411  167.2020 C.ar    1  UNL1        0.0315
     14 S         142.6001  141.0905  167.7474 S.2     1  UNL1       -0.0758
     15 C         142.6925  142.0734  168.8767 C.ar    1  UNL1        0.0830
     16 CL        143.9104  142.3497  169.7076 Cl      1  UNL1       -0.0755
     17 C         137.2471  141.6188  162.8535 C.3     1  UNL1        0.1920
     18 C         137.8847  142.8396  162.2595 C.2     1  UNL1        0.2488
     19 O         138.1814  142.8911  160.7900 O.2     1  UNL1       -0.2728
     20 N         138.2257  144.0090  163.1348 N.am    1  UNL1       -0.2744
     21 C         138.8633  145.2299  162.5407 C.3     1  UNL1        0.1150
     22 C         137.9291  143.9576  164.6043 C.3     1  UNL1        0.1150
@<TRIPOS>BOND
     1    10    11    1
     2    11    12   ar
     3    12    13   ar
     4    13     1    1
     5     1     2   ar
     6     2     3   ar
     7     3     4   ar
     8     4     5   ar
     9     5     6   ar
    10     6     7   ar
    11     7    17    1
    12    17    18    1
    13    18    19    2
    14    18    20   am
    15    20    21    1
    16    20    22    1
    17     7     8   ar
    18     8     9   ar
    19    13    14   ar
    20    14    15   ar
    21    15    16    1
    22    15    11   ar
    23     9     1   ar
    24     8     4   ar
@<TRIPOS>MOLECULE
*****
 22 24 0 0 0
SMALL
GASTEIGER

@<TRIPOS>ATOM
      1 C         140.2474  141.2982  166.5842 C.ar    1  UNL1        0.0266
      2 C         139.2601  140.1821  166.4128 C.ar    1  UNL1        0.0994
      3 N         138.2483  140.2391  165.3069 N.ar    1  UNL1       -0.2423
      4 C         138.2238  141.4122  164.3725 C.ar    1  UNL1        0.0985
      5 C         137.3497  141.7427  163.1991 C.ar    1  UNL1        0.0392
      6 C         137.7968  143.0631  162.6454 C.ar    1  UNL1        0.0779
      7 N         138.9473  143.5486  163.4765 N.ar    1  UNL1       -0.3165
      8 C         139.2112  142.5283  164.5439 C.ar    1  UNL1        0.0782
      9 C         140.2229  142.4713  165.6498 C.ar    1  UNL1        0.0208
     10 C         144.1995  142.5736  169.8455 C.3     1  UNL1        0.0325
     11 C         143.0758  141.8275  169.1892 C.ar    1  UNL1       -0.0047
     12 C         142.2739  142.2981  168.0121 C.ar    1  UNL1        0.0036
     13 C         141.2592  141.2413  167.6902 C.ar    1  UNL1        0.0315
     14 S         141.4340  140.1175  168.6682 S.2     1  UNL1       -0.0758
     15 C         142.5567  140.4798  169.5947 C.ar    1  UNL1        0.0830
     16 CL        143.0702  139.6417  170.7277 Cl      1  UNL1       -0.0755
     17 C         139.7014  144.8296  163.2755 C.3     1  UNL1        0.1920
     18 C         139.9407  145.3494  161.8890 C.2     1  UNL1        0.2488
     19 O         139.0987  146.4685  161.3518 O.2     1  UNL1       -0.2728
     20 N         141.0221  144.7501  161.0396 N.am    1  UNL1       -0.2744
     21 C         141.2614  145.2700  159.6530 C.3     1  UNL1        0.1150
     22 C         141.8642  143.6310  161.5766 C.3     1  UNL1        0.1150
@<TRIPOS>BOND
     1    10    11    1
     2    11    12   ar
     3    12    13   ar
     4    13     1    1
     5     1     2   ar
     6     2     3   ar
     7     3     4   ar
     8     4     5   ar
     9     5     6   ar
    10     6     7   ar
    11     7    17    1
    12    17    18    1
    13    18    19    2
    14    18    20   am
    15    20    21    1
    16    20    22    1
    17     7     8   ar
    18     8     9   ar
    19    13    14   ar
    20    14    15   ar
    21    15    16    1
    22    15    11   ar
    23     9     1   ar
    24     8     4   ar
@<TRIPOS>MOLECULE
*****
 22 24 0 0 0
SMALL
GASTEIGER

@<TRIPOS>ATOM
      1 C         141.9522  139.1981  165.5560 C.ar    1  UNL1        0.0266
      2 C         141.3461  137.9889  164.9077 C.ar    1  UNL1        0.0994
      3 N         141.7229  137.6230  163.5027 N.ar    1  UNL1       -0.2423
      4 C         142.7059  138.4663  162.7460 C.ar    1  UNL1        0.0985
      5 C         143.2652  138.3547  161.3586 C.ar    1  UNL1        0.0392
      6 C         144.2170  139.4951  161.1496 C.ar    1  UNL1        0.0779
      7 N         144.2459  140.3113  162.4077 N.ar    1  UNL1       -0.3165
      8 C         143.3120  139.6755  163.3943 C.ar    1  UNL1        0.0782
      9 C         142.9351  140.0414  164.7993 C.ar    1  UNL1        0.0208
     10 C         139.1271  140.5449  169.8088 C.3     1  UNL1        0.0325
     11 C         140.2767  140.1831  168.9159 C.ar    1  UNL1       -0.0047
     12 C         140.1911  139.8696  167.4515 C.ar    1  UNL1        0.0036
     13 C         141.5753  139.5640  166.9611 C.ar    1  UNL1        0.0315
     14 S         142.5165  139.6886  168.1224 S.2     1  UNL1       -0.0758
     15 C         141.7140  140.0712  169.3305 C.ar    1  UNL1        0.0830
     16 CL        142.2539  140.3015  170.7109 Cl      1  UNL1       -0.0755
     17 C         145.0649  141.5466  162.6386 C.3     1  UNL1        0.1920
     18 C         144.4405  142.9011  162.4797 C.2     1  UNL1        0.2488
     19 O         144.0704  143.4009  161.1147 O.2     1  UNL1       -0.2728
     20 N         144.1860  143.7559  163.6858 N.am    1  UNL1       -0.2744
     21 C         143.5615  145.1104  163.5269 C.3     1  UNL1        0.1150
     22 C         144.5560  143.2562  165.0508 C.3     1  UNL1        0.1150
@<TRIPOS>BOND
     1    10    11    1
     2    11    12   ar
     3    12    13   ar
     4    13     1    1
     5     1     2   ar
     6     2     3   ar
     7     3     4   ar
     8     4     5   ar
     9     5     6   ar
    10     6     7   ar
    11     7    17    1
    12    17    18    1
    13    18    19    2
    14    18    20   am
    15    20    21    1
    16    20    22    1
    17     7     8   ar
    18     8     9   ar
    19    13    14   ar
    20    14    15   ar
    21    15    16    1
    22    15    11   ar
    23     9     1   ar
    24     8     4   ar
@<TRIPOS>MOLECULE
*****
 22 24 0 0 0
SMALL
GASTEIGER

@<TRIPOS>ATOM
      1 C         139.2329  141.9648  163.7248 C.ar    1  UNL1        0.0266
      2 C         138.0964  142.1218  162.7585 C.ar    1  UNL1        0.0994
      3 N         138.2575  142.9899  161.5459 N.ar    1  UNL1       -0.2423
      4 C         139.5551  143.7009  161.2995 C.ar    1  UNL1        0.0985
      5 C         140.0049  144.6165  160.1997 C.ar    1  UNL1        0.0392
      6 C         141.4193  145.0253  160.4863 C.ar    1  UNL1        0.0779
      7 N         141.8438  144.3624  161.7632 N.ar    1  UNL1       -0.3165
      8 C         140.6916  143.5439  162.2658 C.ar    1  UNL1        0.0782
      9 C         140.5305  142.6758  163.4784 C.ar    1  UNL1        0.0208
     10 C         137.5542  138.1858  167.0084 C.3     1  UNL1        0.0325
     11 C         138.3002  139.3597  166.4468 C.ar    1  UNL1       -0.0047
     12 C         138.1298  139.9373  165.0730 C.ar    1  UNL1        0.0036
     13 C         139.0718  141.0967  164.9375 C.ar    1  UNL1        0.0315
     14 S         139.8245  141.2356  166.2275 S.2     1  UNL1       -0.0758
     15 C         139.3477  140.1621  167.1603 C.ar    1  UNL1        0.0830
     16 CL        139.8330  139.9314  168.5607 Cl      1  UNL1       -0.0755
     17 C         143.1849  144.4947  162.4219 C.3     1  UNL1        0.1920
     18 C         144.1779  143.3740  162.3332 C.2     1  UNL1        0.2488
     19 O         144.5982  142.8487  160.9925 O.2     1  UNL1       -0.2728
     20 N         144.7507  142.7785  163.5851 N.am    1  UNL1       -0.2744
     21 C         145.7437  141.6578  163.4964 C.3     1  UNL1        0.1150
     22 C         144.3304  143.3037  164.9258 C.3     1  UNL1        0.1150
@<TRIPOS>BOND
     1    10    11    1
     2    11    12   ar
     3    12    13   ar
     4    13     1    1
     5     1     2   ar
     6     2     3   ar
     7     3     4   ar
     8     4     5   ar
     9     5     6   ar
    10     6     7   ar
    11     7    17    1
    12    17    18    1
    13    18    19    2
    14    18    20   am
    15    20    21    1
    16    20    22    1
    17     7     8   ar
    18     8     9   ar
    19    13    14   ar
    20    14    15   ar
    21    15    16    1
    22    15    11   ar
    23     9     1   ar
    24     8     4   ar
@<TRIPOS>MOLECULE
*****
 22 24 0 0 0
SMALL
GASTEIGER

@<TRIPOS>ATOM
      1 C         140.5116  139.8181  166.0827 C.ar    1  UNL1        0.0266
      2 C         140.9037  138.4456  165.6219 C.ar    1  UNL1        0.0994
      3 N         140.3270  137.8865  164.3551 N.ar    1  UNL1       -0.2423
      4 C         139.3582  138.6999  163.5491 C.ar    1  UNL1        0.0985
      5 C         138.6307  138.4154  162.2685 C.ar    1  UNL1        0.0392
      6 C         137.7890  139.6121  161.9379 C.ar    1  UNL1        0.0779
      7 N         137.9963  140.6362  163.0141 N.ar    1  UNL1       -0.3165
      8 C         138.9661  140.0725  164.0099 C.ar    1  UNL1        0.0782
      9 C         139.5428  140.6315  165.2767 C.ar    1  UNL1        0.0208
     10 C         143.6858  142.3237  169.4780 C.3     1  UNL1        0.0325
     11 C         142.5474  141.5290  168.9101 C.ar    1  UNL1       -0.0047
     12 C         142.3520  141.1772  167.4651 C.ar    1  UNL1        0.0036
     13 C         141.0884  140.3772  167.3495 C.ar    1  UNL1        0.0315
     14 S         140.5028  140.2346  168.7231 S.2     1  UNL1       -0.0758
     15 C         141.4045  140.9464  169.6876 C.ar    1  UNL1        0.0830
     16 CL        141.1993  141.0564  171.1694 Cl      1  UNL1       -0.0755
     17 C         137.3476  141.9870  163.0825 C.3     1  UNL1        0.1920
     18 C         137.9765  143.1572  162.3860 C.2     1  UNL1        0.2488
     19 O         138.0171  143.2046  160.8873 O.2     1  UNL1       -0.2728
     20 N         138.5648  144.2799  163.1881 N.am    1  UNL1       -0.2744
     21 C         139.1937  145.4500  162.4915 C.3     1  UNL1        0.1150
     22 C         138.5243  144.2325  164.6867 C.3     1  UNL1        0.1150
@<TRIPOS>BOND
     1    10    11    1
     2    11    12   ar
     3    12    13   ar
     4    13     1    1
     5     1     2   ar
     6     2     3   ar
     7     3     4   ar
     8     4     5   ar
     9     5     6   ar
    10     6     7   ar
    11     7    17    1
    12    17    18    1
    13    18    19    2
    14    18    20   am
    15    20    21    1
    16    20    22    1
    17     7     8   ar
    18     8     9   ar
    19    13    14   ar
    20    14    15   ar
    21    15    16    1
    22    15    11   ar
    23     9     1   ar
    24     8     4   ar
@<TRIPOS>MOLECULE
*****
 22 24 0 0 0
SMALL
GASTEIGER

@<TRIPOS>ATOM
      1 C         142.1847  141.2163  166.4127 C.ar    1  UNL1        0.0266
      2 C         143.2973  142.2017  166.2104 C.ar    1  UNL1        0.0994
      3 N         144.2035  142.0760  165.0217 N.ar    1  UNL1       -0.2423
      4 C         143.9971  140.9649  164.0354 C.ar    1  UNL1        0.0985
      5 C         144.7252  140.5904  162.7785 C.ar    1  UNL1        0.0392
      6 C         144.0625  139.3734  162.2041 C.ar    1  UNL1        0.0779
      7 N         142.9249  138.9959  163.1060 N.ar    1  UNL1       -0.3165
      8 C         142.8845  139.9795  164.2377 C.ar    1  UNL1        0.0782
      9 C         141.9783  140.1052  165.4264 C.ar    1  UNL1        0.0208
     10 C         139.7758  143.1097  170.7131 C.3     1  UNL1        0.0325
     11 C         140.1712  142.2123  169.5781 C.ar    1  UNL1       -0.0047
     12 C         141.2106  142.5111  168.5387 C.ar    1  UNL1        0.0036
     13 C         141.2784  141.3420  167.6014 C.ar    1  UNL1        0.0315
     14 S         140.2809  140.3206  168.0615 S.2     1  UNL1       -0.0758
     15 C         139.5966  140.8584  169.2832 C.ar    1  UNL1        0.0830
     16 CL        138.5257  140.1643  170.0715 Cl      1  UNL1       -0.0755
     17 C         141.9916  137.8380  162.9104 C.3     1  UNL1        0.1920
     18 C         140.7432  138.0101  162.0968 C.2     1  UNL1        0.2488
     19 O         140.8374  138.2303  160.6161 O.2     1  UNL1       -0.2728
     20 N         139.4006  137.9621  162.7640 N.am    1  UNL1       -0.2744
     21 C         138.1522  138.1342  161.9505 C.3     1  UNL1        0.1150
     22 C         139.3063  137.7419  164.2447 C.3     1  UNL1        0.1150
@<TRIPOS>BOND
     1    10    11    1
     2    11    12   ar
     3    12    13   ar
     4    13     1    1
     5     1     2   ar
     6     2     3   ar
     7     3     4   ar
     8     4     5   ar
     9     5     6   ar
    10     6     7   ar
    11     7    17    1
    12    17    18    1
    13    18    19    2
    14    18    20   am
    15    20    21    1
    16    20    22    1
    17     7     8   ar
    18     8     9   ar
    19    13    14   ar
    20    14    15   ar
    21    15    16    1
    22    15    11   ar
    23     9     1   ar
    24     8     4   ar
@<TRIPOS>MOLECULE
*****
 22 24 0 0 0
SMALL
GASTEIGER

@<TRIPOS>ATOM
      1 C         141.6076  140.1958  166.7860 C.ar    1  UNL1        0.0266
      2 C         142.7043  139.1767  166.6928 C.ar    1  UNL1        0.0994
      3 N         142.6566  138.1187  165.6306 N.ar    1  UNL1       -0.2423
      4 C         141.5123  138.0797  164.6616 C.ar    1  UNL1        0.0985
      5 C         141.1967  137.1624  163.5175 C.ar    1  UNL1        0.0392
      6 C         139.9049  137.6146  162.9036 C.ar    1  UNL1        0.0779
      7 N         139.4222  138.8113  163.6683 N.ar    1  UNL1       -0.3165
      8 C         140.4156  139.0988  164.7548 C.ar    1  UNL1        0.0782
      9 C         140.4633  140.1568  165.8170 C.ar    1  UNL1        0.0208
     10 C         140.2440  144.1856  169.9644 C.3     1  UNL1        0.0325
     11 C         141.0284  143.0878  169.3091 C.ar    1  UNL1       -0.0047
     12 C         140.5505  142.2087  168.1917 C.ar    1  UNL1        0.0036
     13 C         141.6553  141.2539  167.8482 C.ar    1  UNL1        0.0315
     14 S         142.8159  141.5429  168.7533 S.2     1  UNL1       -0.0758
     15 C         142.4286  142.6764  169.6562 C.ar    1  UNL1        0.0830
     16 CL        143.2901  143.2905  170.7196 Cl      1  UNL1       -0.0755
     17 C         138.1665  139.5848  163.3946 C.3     1  UNL1        0.1920
     18 C         138.0168  140.3407  162.1076 C.2     1  UNL1        0.2488
     19 O         137.4040  139.6728  160.9125 O.2     1  UNL1       -0.2728
     20 N         138.4798  141.7645  162.0158 N.am    1  UNL1       -0.2744
     21 C         138.3300  142.5204  160.7289 C.3     1  UNL1        0.1150
     22 C         139.0925  142.4325  163.2109 C.3     1  UNL1        0.1150
@<TRIPOS>BOND
     1    10    11    1
     2    11    12   ar
     3    12    13   ar
     4    13     1    1
     5     1     2   ar
     6     2     3   ar
     7     3     4   ar
     8     4     5   ar
     9     5     6   ar
    10     6     7   ar
    11     7    17    1
    12    17    18    1
    13    18    19    2
    14    18    20   am
    15    20    21    1
    16    20    22    1
    17     7     8   ar
    18     8     9   ar
    19    13    14   ar
    20    14    15   ar
    21    15    16    1
    22    15    11   ar
    23     9     1   ar
    24     8     4   ar
@<TRIPOS>MOLECULE
*****
 22 24 0 0 0
SMALL
GASTEIGER

@<TRIPOS>ATOM
      1 C         141.3833  140.1784  165.7389 C.ar    1  UNL1        0.0266
      2 C         141.8613  138.7574  165.7827 C.ar    1  UNL1        0.0994
      3 N         141.6862  137.8700  164.5862 N.ar    1  UNL1       -0.2423
      4 C         141.0330  138.4037  163.3458 C.ar    1  UNL1        0.0985
      5 C         140.7259  137.7702  162.0212 C.ar    1  UNL1        0.0392
      6 C         140.0582  138.7999  161.1587 C.ar    1  UNL1        0.0779
      7 N         139.9525  140.0697  161.9503 N.ar    1  UNL1       -0.3165
      8 C         140.5550  139.8248  163.3020 C.ar    1  UNL1        0.0782
      9 C         140.7302  140.7122  164.4985 C.ar    1  UNL1        0.0208
     10 C         143.4899  142.5892  169.9379 C.3     1  UNL1        0.0325
     11 C         142.5268  142.1740  168.8656 C.ar    1  UNL1       -0.0047
     12 C         142.7920  141.1708  167.7824 C.ar    1  UNL1        0.0036
     13 C         141.5584  141.0659  166.9355 C.ar    1  UNL1        0.0315
     14 S         140.5307  142.0042  167.4953 S.2     1  UNL1       -0.0758
     15 C         141.1292  142.6891  168.6881 C.ar    1  UNL1        0.0830
     16 CL        140.4494  143.7098  169.5519 Cl      1  UNL1       -0.0755
     17 C         139.3502  141.3581  161.4739 C.3     1  UNL1        0.1920
     18 C         138.3986  142.1122  162.3548 C.2     1  UNL1        0.2488
     19 O         137.0394  141.5486  162.6460 O.2     1  UNL1       -0.2728
     20 N         138.8064  143.4297  162.9445 N.am    1  UNL1       -0.2744
     21 C         137.8549  144.1838  163.8255 C.3     1  UNL1        0.1150
     22 C         140.1656  143.9933  162.6533 C.3     1  UNL1        0.1150
@<TRIPOS>BOND
     1    10    11    1
     2    11    12   ar
     3    12    13   ar
     4    13     1    1
     5     1     2   ar
     6     2     3   ar
     7     3     4   ar
     8     4     5   ar
     9     5     6   ar
    10     6     7   ar
    11     7    17    1
    12    17    18    1
    13    18    19    2
    14    18    20   am
    15    20    21    1
    16    20    22    1
    17     7     8   ar
    18     8     9   ar
    19    13    14   ar
    20    14    15   ar
    21    15    16    1
    22    15    11   ar
    23     9     1   ar
    24     8     4   ar
@<TRIPOS>MOLECULE
*****
 22 24 0 0 0
SMALL
GASTEIGER

@<TRIPOS>ATOM
      1 C         141.9151  142.1635  166.0317 C.ar    1  UNL1        0.0266
      2 C         143.3065  142.6678  165.7871 C.ar    1  UNL1        0.0994
      3 N         143.6082  143.4685  164.5552 N.ar    1  UNL1       -0.2423
      4 C         142.5187  143.7648  163.5677 C.ar    1  UNL1        0.0985
      5 C         142.5162  144.5230  162.2734 C.ar    1  UNL1        0.0392
      6 C         141.1233  144.4873  161.7180 C.ar    1  UNL1        0.0779
      7 N         140.2649  143.7070  162.6690 N.ar    1  UNL1       -0.3165
      8 C         141.1274  143.2605  163.8122 C.ar    1  UNL1        0.0782
      9 C         140.8256  142.4598  165.0442 C.ar    1  UNL1        0.0208
     10 C         139.4224  140.1611  170.2338 C.3     1  UNL1        0.0325
     11 C         140.4675  140.4424  169.1952 C.ar    1  UNL1       -0.0047
     12 C         140.3336  141.3965  168.0455 C.ar    1  UNL1        0.0036
     13 C         141.6133  141.3628  167.2637 C.ar    1  UNL1        0.0315
     14 S         142.5381  140.3879  167.9302 S.2     1  UNL1       -0.0758
     15 C         141.8300  139.8191  169.1239 C.ar    1  UNL1        0.0830
     16 CL        142.3867  138.8049  170.0788 Cl      1  UNL1       -0.0755
     17 C         138.8012  143.4230  162.5056 C.3     1  UNL1        0.1920
     18 C         138.3365  142.4638  161.4502 C.2     1  UNL1        0.2488
     19 O         138.2450  142.9083  160.0206 O.2     1  UNL1       -0.2728
     20 N         137.9633  141.0600  161.8245 N.am    1  UNL1       -0.2744
     21 C         137.4986  140.1007  160.7691 C.3     1  UNL1        0.1150
     22 C         138.0548  140.6154  163.2541 C.3     1  UNL1        0.1150
@<TRIPOS>BOND
     1    10    11    1
     2    11    12   ar
     3    12    13   ar
     4    13     1    1
     5     1     2   ar
     6     2     3   ar
     7     3     4   ar
     8     4     5   ar
     9     5     6   ar
    10     6     7   ar
    11     7    17    1
    12    17    18    1
    13    18    19    2
    14    18    20   am
    15    20    21    1
    16    20    22    1
    17     7     8   ar
    18     8     9   ar
    19    13    14   ar
    20    14    15   ar
    21    15    16    1
    22    15    11   ar
    23     9     1   ar
    24     8     4   ar
