@<TRIPOS>MOLECULE
*****
 32 35 0 0 0
SMALL
GASTEIGER

@<TRIPOS>ATOM
      1 N         140.0088  141.7468  163.8211 N.am    1  UNL1       -0.2809
      2 C         139.1553  142.8768  163.3265 C.2     1  UNL1        0.2495
      3 O         137.9145  143.2632  164.0757 O.2     1  UNL1       -0.2698
      4 H         140.8231  141.4932  163.3294 H       1  UNL1        0.1552
      5 C         138.0594  139.4718  163.6629 C.3     1  UNL1        0.0323
      6 C         138.6467  139.8656  164.9857 C.ar    1  UNL1       -0.0087
      7 C         138.2594  139.1220  166.2295 C.ar    1  UNL1       -0.0030
      8 C         138.8467  139.5158  167.5524 C.ar    1  UNL1        0.0024
      9 C         139.8213  140.6532  167.6315 C.ar    1  UNL1        0.0312
     10 C         140.2086  141.3969  166.3878 C.ar    1  UNL1       -0.0058
     11 C         141.1833  142.5344  166.4669 C.3     1  UNL1        0.0324
     12 C         139.6214  141.0031  165.0649 C.ar    1  UNL1        0.0426
     13 C         140.4086  141.0470  168.9544 C.ar    1  UNL1        0.1403
     14 N         139.9135  142.1465  169.8466 N.ar    1  UNL1       -0.2254
     15 C         140.7930  142.1895  171.0610 C.ar    1  UNL1        0.1189
     16 C         141.8317  141.1166  170.9193 C.ar    1  UNL1        0.0945
     17 N         141.5941  140.4105  169.6173 N.ar    1  UNL1       -0.3361
     18 H         142.1233  139.6610  169.2606 H       1  UNL1        0.1674
     19 C         139.5427  143.6205  162.0828 C.ar    1  UNL1        0.0539
     20 C         139.8049  145.0962  162.1423 C.ar    1  UNL1        0.0076
     21 C         140.1923  145.8399  160.8985 C.ar    1  UNL1        0.0371
     22 C         140.3174  145.1079  159.5953 C.ar    1  UNL1        0.1391
     23 C         140.0551  143.6322  159.5358 C.ar    1  UNL1        0.0371
     24 C         139.6678  142.8885  160.7795 C.ar    1  UNL1        0.0076
     25 O         140.7047  145.8516  158.3516 O.3     1  UNL1       -0.4690
     26 C         139.9094  145.6727  157.0924 C.3     1  UNL1        0.2508
     27 C         139.8010  146.7989  156.1074 C.ar    1  UNL1        0.1026
     28 C         138.9161  147.9729  156.4051 C.ar    1  UNL1        0.0185
     29 C         138.8077  149.0991  155.4203 C.ar    1  UNL1        0.0029
     30 C         139.5841  149.0512  154.1377 C.ar    1  UNL1        0.0207
     31 C         140.4689  147.8771  153.8401 C.ar    1  UNL1        0.0986
     32 N         140.5774  146.7509  154.8249 N.ar    1  UNL1       -0.2445
@<TRIPOS>BOND
     1     5     6    1
     2     6     7   ar
     3     7     8   ar
     4     8     9   ar
     5     9    13    1
     6    13    14   ar
     7    14    15   ar
     8    15    16   ar
     9    16    17   ar
    10     9    10   ar
    11    10    11    1
    12    10    12   ar
    13    12     1    1
    14     1     2   am
    15     2     3    2
    16     2    19    1
    17    19    20   ar
    18    20    21   ar
    19    21    22   ar
    20    22    25    1
    21    25    26    1
    22    26    27    1
    23    27    28   ar
    24    28    29   ar
    25    29    30   ar
    26    30    31   ar
    27    31    32   ar
    28    22    23   ar
    29    23    24   ar
    30    12     6   ar
    31    24    19   ar
    32    17    13   ar
    33    32    27   ar
    34    17    18    1
    35     1     4    1
@<TRIPOS>MOLECULE
*****
 32 35 0 0 0
SMALL
GASTEIGER

@<TRIPOS>ATOM
      1 N         140.3430  141.6101  163.8344 N.am    1  UNL1       -0.2809
      2 C         139.7342  142.9128  163.4073 C.2     1  UNL1        0.2495
      3 O         138.5825  143.4901  164.1757 O.2     1  UNL1       -0.2698
      4 H         141.0989  141.2312  163.3300 H       1  UNL1        0.1552
      5 C         138.1723  139.5679  163.4918 C.3     1  UNL1        0.0323
      6 C         138.7148  139.8637  164.8586 C.ar    1  UNL1       -0.0087
      7 C         138.1721  139.1384  166.0541 C.ar    1  UNL1       -0.0030
      8 C         138.7146  139.4342  167.4209 C.ar    1  UNL1        0.0024
      9 C         139.7999  140.4552  167.5922 C.ar    1  UNL1        0.0312
     10 C         140.3427  141.1805  166.3967 C.ar    1  UNL1       -0.0058
     11 C         141.4281  142.2017  166.5680 C.3     1  UNL1        0.0324
     12 C         139.8002  140.8847  165.0299 C.ar    1  UNL1        0.0426
     13 C         140.3425  140.7510  168.9590 C.ar    1  UNL1        0.1403
     14 N         139.8368  141.8046  169.8994 N.ar    1  UNL1       -0.2254
     15 C         140.6677  141.7499  171.1470 C.ar    1  UNL1        0.1189
     16 C         141.6870  140.6626  170.9777 C.ar    1  UNL1        0.0945
     17 N         141.4860  140.0452  169.6255 N.ar    1  UNL1       -0.3361
     18 H         142.0122  139.3065  169.2426 H       1  UNL1        0.1674
     19 C         140.2769  143.6381  162.2118 C.ar    1  UNL1        0.0539
     20 C         141.3848  143.0293  161.4044 C.ar    1  UNL1        0.0076
     21 C         141.9276  143.7547  160.2088 C.ar    1  UNL1        0.0371
     22 C         141.3625  145.0889  159.8208 C.ar    1  UNL1        0.1391
     23 C         140.2546  145.6977  160.6282 C.ar    1  UNL1        0.0371
     24 C         139.7118  144.9724  161.8237 C.ar    1  UNL1        0.0076
     25 O         141.9053  145.8143  158.6253 O.3     1  UNL1       -0.4690
     26 C         141.7660  145.2149  157.2574 C.3     1  UNL1        0.2508
     27 C         140.4519  145.2862  156.5375 C.ar    1  UNL1        0.1026
     28 C         139.5757  144.0715  156.4539 C.ar    1  UNL1        0.0185
     29 C         138.2616  144.1428  155.7341 C.ar    1  UNL1        0.0029
     30 C         137.8237  145.4287  155.0980 C.ar    1  UNL1        0.0207
     31 C         138.6999  146.6433  155.1816 C.ar    1  UNL1        0.0986
     32 N         140.0140  146.5720  155.9014 N.ar    1  UNL1       -0.2445
@<TRIPOS>BOND
     1     5     6    1
     2     6     7   ar
     3     7     8   ar
     4     8     9   ar
     5     9    13    1
     6    13    14   ar
     7    14    15   ar
     8    15    16   ar
     9    16    17   ar
    10     9    10   ar
    11    10    11    1
    12    10    12   ar
    13    12     1    1
    14     1     2   am
    15     2     3    2
    16     2    19    1
    17    19    20   ar
    18    20    21   ar
    19    21    22   ar
    20    22    25    1
    21    25    26    1
    22    26    27    1
    23    27    28   ar
    24    28    29   ar
    25    29    30   ar
    26    30    31   ar
    27    31    32   ar
    28    22    23   ar
    29    23    24   ar
    30    12     6   ar
    31    24    19   ar
    32    17    13   ar
    33    32    27   ar
    34    17    18    1
    35     1     4    1
@<TRIPOS>MOLECULE
*****
 32 35 0 0 0
SMALL
GASTEIGER

@<TRIPOS>ATOM
      1 N         141.6555  141.3542  163.7871 N.am    1  UNL1       -0.2809
      2 C         142.3663  142.6253  163.4279 C.2     1  UNL1        0.2495
      3 O         143.5726  143.0563  164.2084 O.2     1  UNL1       -0.2698
      4 H         140.8638  141.0713  163.2748 H       1  UNL1        0.1552
      5 C         143.5994  139.1273  163.2750 C.3     1  UNL1        0.0323
      6 C         143.1228  139.4007  164.6708 C.ar    1  UNL1       -0.0087
      7 C         143.6182  138.5607  165.8105 C.ar    1  UNL1       -0.0030
      8 C         143.1416  138.8342  167.2062 C.ar    1  UNL1        0.0024
      9 C         142.1697  139.9476  167.4623 C.ar    1  UNL1        0.0312
     10 C         141.6743  140.7876  166.3226 C.ar    1  UNL1       -0.0058
     11 C         140.7024  141.9011  166.5786 C.3     1  UNL1        0.0324
     12 C         142.1509  140.5141  164.9268 C.ar    1  UNL1        0.0426
     13 C         141.6932  140.2210  168.8580 C.ar    1  UNL1        0.1403
     14 N         142.4129  141.0354  169.8918 N.ar    1  UNL1       -0.2254
     15 C         141.5778  141.0458  171.1378 C.ar    1  UNL1        0.1189
     16 C         140.3418  140.2378  170.8741 C.ar    1  UNL1        0.0945
     17 N         140.4132  139.7281  169.4651 N.ar    1  UNL1       -0.3361
     18 H         139.7383  139.1683  169.0174 H       1  UNL1        0.1674
     19 C         141.8710  143.4653  162.2882 C.ar    1  UNL1        0.0539
     20 C         142.3383  143.1843  160.8908 C.ar    1  UNL1        0.0076
     21 C         141.8429  144.0244  159.7511 C.ar    1  UNL1        0.0371
     22 C         140.8802  145.1455  160.0088 C.ar    1  UNL1        0.1391
     23 C         140.4129  145.4265  161.4062 C.ar    1  UNL1        0.0371
     24 C         140.9082  144.5864  162.5459 C.ar    1  UNL1        0.0076
     25 O         140.3848  145.9855  158.8692 O.3     1  UNL1       -0.4690
     26 C         140.1818  145.3699  157.5165 C.3     1  UNL1        0.2508
     27 C         140.1101  146.2424  156.2984 C.ar    1  UNL1        0.1026
     28 C         139.1982  147.4333  156.2816 C.ar    1  UNL1        0.0185
     29 C         139.1265  148.3059  155.0637 C.ar    1  UNL1        0.0029
     30 C         139.9666  147.9875  153.8625 C.ar    1  UNL1        0.0207
     31 C         140.8784  146.7966  153.8793 C.ar    1  UNL1        0.0986
     32 N         140.9502  145.9241  155.0973 N.ar    1  UNL1       -0.2445
@<TRIPOS>BOND
     1     5     6    1
     2     6     7   ar
     3     7     8   ar
     4     8     9   ar
     5     9    13    1
     6    13    14   ar
     7    14    15   ar
     8    15    16   ar
     9    16    17   ar
    10     9    10   ar
    11    10    11    1
    12    10    12   ar
    13    12     1    1
    14     1     2   am
    15     2     3    2
    16     2    19    1
    17    19    20   ar
    18    20    21   ar
    19    21    22   ar
    20    22    25    1
    21    25    26    1
    22    26    27    1
    23    27    28   ar
    24    28    29   ar
    25    29    30   ar
    26    30    31   ar
    27    31    32   ar
    28    22    23   ar
    29    23    24   ar
    30    12     6   ar
    31    24    19   ar
    32    17    13   ar
    33    32    27   ar
    34    17    18    1
    35     1     4    1
@<TRIPOS>MOLECULE
*****
 32 35 0 0 0
SMALL
GASTEIGER

@<TRIPOS>ATOM
      1 N         140.7201  140.0419  163.8169 N.am    1  UNL1       -0.2809
      2 C         141.8716  139.1724  163.4069 C.2     1  UNL1        0.2495
      3 O         142.5330  138.2794  164.4145 O.2     1  UNL1       -0.2698
      4 H         140.2860  140.6280  163.1556 H       1  UNL1        0.1552
      5 C         138.6984  137.9968  164.6714 C.3     1  UNL1        0.0323
      6 C         139.2192  138.9958  165.6617 C.ar    1  UNL1       -0.0087
      7 C         138.7292  138.9724  167.0792 C.ar    1  UNL1       -0.0030
      8 C         139.2500  139.9714  168.0694 C.ar    1  UNL1        0.0024
      9 C         140.2608  140.9940  167.6422 C.ar    1  UNL1        0.0312
     10 C         140.7509  141.0175  166.2247 C.ar    1  UNL1       -0.0058
     11 C         141.7617  142.0401  165.7974 C.3     1  UNL1        0.0324
     12 C         140.2300  140.0184  165.2345 C.ar    1  UNL1        0.0426
     13 C         140.7817  141.9931  168.6324 C.ar    1  UNL1        0.1403
     14 N         142.0692  141.8898  169.3951 N.ar    1  UNL1       -0.2254
     15 C         142.1897  143.1037  170.2679 C.ar    1  UNL1        0.1189
     16 C         140.9766  143.9573  170.0447 C.ar    1  UNL1        0.0945
     17 N         140.1064  143.2709  169.0339 N.ar    1  UNL1       -0.3361
     18 H         139.2436  143.6011  168.6938 H       1  UNL1        0.1674
     19 C         142.3617  139.1959  161.9895 C.ar    1  UNL1        0.0539
     20 C         142.4106  137.9266  161.1917 C.ar    1  UNL1        0.0076
     21 C         142.9007  137.9501  159.7742 C.ar    1  UNL1        0.0371
     22 C         143.3419  139.2429  159.1545 C.ar    1  UNL1        0.1391
     23 C         143.2930  140.5122  159.9523 C.ar    1  UNL1        0.0371
     24 C         142.8029  140.4887  161.3698 C.ar    1  UNL1        0.0076
     25 O         143.8319  139.2664  157.7371 O.3     1  UNL1       -0.4690
     26 C         143.8987  140.5642  156.9880 C.3     1  UNL1        0.2508
     27 C         145.2286  141.1922  156.6927 C.ar    1  UNL1        0.1026
     28 C         146.0184  140.7489  155.4971 C.ar    1  UNL1        0.0185
     29 C         147.3483  141.3768  155.2018 C.ar    1  UNL1        0.0029
     30 C         147.8883  142.4480  156.1022 C.ar    1  UNL1        0.0207
     31 C         147.0985  142.8913  157.2979 C.ar    1  UNL1        0.0986
     32 N         145.7686  142.2634  157.5932 N.ar    1  UNL1       -0.2445
@<TRIPOS>BOND
     1     5     6    1
     2     6     7   ar
     3     7     8   ar
     4     8     9   ar
     5     9    13    1
     6    13    14   ar
     7    14    15   ar
     8    15    16   ar
     9    16    17   ar
    10     9    10   ar
    11    10    11    1
    12    10    12   ar
    13    12     1    1
    14     1     2   am
    15     2     3    2
    16     2    19    1
    17    19    20   ar
    18    20    21   ar
    19    21    22   ar
    20    22    25    1
    21    25    26    1
    22    26    27    1
    23    27    28   ar
    24    28    29   ar
    25    29    30   ar
    26    30    31   ar
    27    31    32   ar
    28    22    23   ar
    29    23    24   ar
    30    12     6   ar
    31    24    19   ar
    32    17    13   ar
    33    32    27   ar
    34    17    18    1
    35     1     4    1
@<TRIPOS>MOLECULE
*****
 32 35 0 0 0
SMALL
GASTEIGER

@<TRIPOS>ATOM
      1 N         141.7192  141.0847  162.8308 N.am    1  UNL1       -0.2809
      2 C         141.1365  139.7783  162.3792 C.2     1  UNL1        0.2495
      3 O         140.0660  139.1134  163.1929 O.2     1  UNL1       -0.2698
      4 H         142.4217  141.5211  162.2968 H       1  UNL1        0.1552
      5 C         139.2966  142.8535  162.7785 C.3     1  UNL1        0.0323
      6 C         140.0200  142.6105  164.0698 C.ar    1  UNL1       -0.0087
      7 C         139.5323  143.2518  165.3350 C.ar    1  UNL1       -0.0030
      8 C         140.2557  143.0088  166.6263 C.ar    1  UNL1        0.0024
      9 C         141.4670  142.1245  166.6525 C.ar    1  UNL1        0.0312
     10 C         141.9548  141.4831  165.3873 C.ar    1  UNL1       -0.0058
     11 C         143.1661  140.5987  165.4135 C.3     1  UNL1        0.0324
     12 C         141.2313  141.7261  164.0960 C.ar    1  UNL1        0.0426
     13 C         142.1904  141.8815  167.9438 C.ar    1  UNL1        0.1403
     14 N         143.3296  142.6949  168.4828 N.ar    1  UNL1       -0.2254
     15 C         143.7450  142.0986  169.7950 C.ar    1  UNL1        0.1189
     16 C         142.8625  140.9165  170.0670 C.ar    1  UNL1        0.0945
     17 N         141.9017  140.7824  168.9229 N.ar    1  UNL1       -0.3361
     18 H         141.2041  140.0939  168.8308 H       1  UNL1        0.1674
     19 C         141.6243  139.1369  161.1141 C.ar    1  UNL1        0.0539
     20 C         142.6393  138.0342  161.1753 C.ar    1  UNL1        0.0076
     21 C         143.1271  137.3927  159.9101 C.ar    1  UNL1        0.0371
     22 C         142.5999  137.8541  158.5837 C.ar    1  UNL1        0.1391
     23 C         141.5849  138.9568  158.5225 C.ar    1  UNL1        0.0371
     24 C         141.0971  139.5982  159.7877 C.ar    1  UNL1        0.0076
     25 O         143.0877  137.2127  157.3186 O.3     1  UNL1       -0.4690
     26 C         142.3515  136.0411  156.7395 C.3     1  UNL1        0.2508
     27 C         143.0272  134.7055  156.6398 C.ar    1  UNL1        0.1026
     28 C         143.7163  134.1223  157.8377 C.ar    1  UNL1        0.0185
     29 C         144.3920  132.7869  157.7380 C.ar    1  UNL1        0.0029
     30 C         144.3786  132.0347  156.4403 C.ar    1  UNL1        0.0207
     31 C         143.6896  132.6179  155.2424 C.ar    1  UNL1        0.0986
     32 N         143.0139  133.9533  155.3421 N.ar    1  UNL1       -0.2445
@<TRIPOS>BOND
     1     5     6    1
     2     6     7   ar
     3     7     8   ar
     4     8     9   ar
     5     9    13    1
     6    13    14   ar
     7    14    15   ar
     8    15    16   ar
     9    16    17   ar
    10     9    10   ar
    11    10    11    1
    12    10    12   ar
    13    12     1    1
    14     1     2   am
    15     2     3    2
    16     2    19    1
    17    19    20   ar
    18    20    21   ar
    19    21    22   ar
    20    22    25    1
    21    25    26    1
    22    26    27    1
    23    27    28   ar
    24    28    29   ar
    25    29    30   ar
    26    30    31   ar
    27    31    32   ar
    28    22    23   ar
    29    23    24   ar
    30    12     6   ar
    31    24    19   ar
    32    17    13   ar
    33    32    27   ar
    34    17    18    1
    35     1     4    1
@<TRIPOS>MOLECULE
*****
 32 35 0 0 0
SMALL
GASTEIGER

@<TRIPOS>ATOM
      1 N         143.0871  140.1833  163.1281 N.am    1  UNL1       -0.2809
      2 C         141.8930  140.3790  162.2416 C.2     1  UNL1        0.2495
      3 O         140.8023  141.3242  162.6503 O.2     1  UNL1       -0.2698
      4 H         143.8030  139.5630  162.8599 H       1  UNL1        0.1552
      5 C         144.4277  142.8660  163.2062 C.3     1  UNL1        0.0323
      6 C         143.8606  142.2741  164.4624 C.ar    1  UNL1       -0.0087
      7 C         143.9639  143.0235  165.7577 C.ar    1  UNL1       -0.0030
      8 C         143.3969  142.4316  167.0139 C.ar    1  UNL1        0.0024
      9 C         142.7266  141.0903  166.9749 C.ar    1  UNL1        0.0312
     10 C         142.6233  140.3409  165.6797 C.ar    1  UNL1       -0.0058
     11 C         141.9530  138.9996  165.6406 C.3     1  UNL1        0.0324
     12 C         143.1904  140.9328  164.4234 C.ar    1  UNL1        0.0426
     13 C         142.1595  140.4985  168.2311 C.ar    1  UNL1        0.1403
     14 N         142.8738  139.5717  169.1697 N.ar    1  UNL1       -0.2254
     15 C         141.9344  139.2299  170.2880 C.ar    1  UNL1        0.1189
     16 C         140.6394  139.9454  170.0406 C.ar    1  UNL1        0.0945
     17 N         140.7786  140.7294  168.7694 N.ar    1  UNL1       -0.3361
     18 H         140.0853  141.2960  168.3602 H       1  UNL1        0.1674
     19 C         141.7897  139.6296  160.9464 C.ar    1  UNL1        0.0539
     20 C         140.4686  139.5249  160.2438 C.ar    1  UNL1        0.0076
     21 C         140.3653  138.7754  158.9485 C.ar    1  UNL1        0.0371
     22 C         141.5831  138.1307  158.3559 C.ar    1  UNL1        0.1391
     23 C         142.9043  138.2354  159.0585 C.ar    1  UNL1        0.0371
     24 C         143.0076  138.9849  160.3537 C.ar    1  UNL1        0.0076
     25 O         141.4798  137.3813  157.0606 O.3     1  UNL1       -0.4690
     26 C         142.6520  136.5943  156.5539 C.3     1  UNL1        0.2508
     27 C         142.5500  135.1045  156.4116 C.ar    1  UNL1        0.1026
     28 C         141.6019  134.5097  155.4130 C.ar    1  UNL1        0.0185
     29 C         141.4999  133.0199  155.2707 C.ar    1  UNL1        0.0029
     30 C         142.3460  132.1251  156.1269 C.ar    1  UNL1        0.0207
     31 C         143.2941  132.7199  157.1255 C.ar    1  UNL1        0.0986
     32 N         143.3961  134.2096  157.2678 N.ar    1  UNL1       -0.2445
@<TRIPOS>BOND
     1     5     6    1
     2     6     7   ar
     3     7     8   ar
     4     8     9   ar
     5     9    13    1
     6    13    14   ar
     7    14    15   ar
     8    15    16   ar
     9    16    17   ar
    10     9    10   ar
    11    10    11    1
    12    10    12   ar
    13    12     1    1
    14     1     2   am
    15     2     3    2
    16     2    19    1
    17    19    20   ar
    18    20    21   ar
    19    21    22   ar
    20    22    25    1
    21    25    26    1
    22    26    27    1
    23    27    28   ar
    24    28    29   ar
    25    29    30   ar
    26    30    31   ar
    27    31    32   ar
    28    22    23   ar
    29    23    24   ar
    30    12     6   ar
    31    24    19   ar
    32    17    13   ar
    33    32    27   ar
    34    17    18    1
    35     1     4    1
@<TRIPOS>MOLECULE
*****
 32 35 0 0 0
SMALL
GASTEIGER

@<TRIPOS>ATOM
      1 N         141.2310  139.9507  163.8006 N.am    1  UNL1       -0.2809
      2 C         141.1526  141.2409  163.0395 C.2     1  UNL1        0.2495
      3 O         140.1604  142.2908  163.4435 O.2     1  UNL1       -0.2698
      4 H         141.8822  139.2615  163.5355 H       1  UNL1        0.1552
      5 C         138.6705  138.4366  163.4114 C.3     1  UNL1        0.0323
      6 C         139.0369  138.9535  164.7711 C.ar    1  UNL1       -0.0087
      7 C         138.1232  138.7133  165.9361 C.ar    1  UNL1       -0.0030
      8 C         138.4896  139.2301  167.2957 C.ar    1  UNL1        0.0024
      9 C         139.7699  139.9871  167.4903 C.ar    1  UNL1        0.0312
     10 C         140.6836  140.2273  166.3253 C.ar    1  UNL1       -0.0058
     11 C         141.9639  140.9843  166.5199 C.3     1  UNL1        0.0324
     12 C         140.3172  139.7105  164.9657 C.ar    1  UNL1        0.0426
     13 C         140.1363  140.5039  168.8500 C.ar    1  UNL1        0.1403
     14 N         140.6649  139.6863  169.9910 N.ar    1  UNL1       -0.2254
     15 C         140.8938  140.6062  171.1535 C.ar    1  UNL1        0.1189
     16 C         140.5067  141.9924  170.7310 C.ar    1  UNL1        0.0945
     17 N         140.0386  141.9292  169.3073 N.ar    1  UNL1       -0.3361
     18 H         139.7226  142.6896  168.7677 H       1  UNL1        0.1674
     19 C         142.0664  141.4811  161.8746 C.ar    1  UNL1        0.0539
     20 C         142.8485  140.3436  161.2878 C.ar    1  UNL1        0.0076
     21 C         143.7624  140.5839  160.1227 C.ar    1  UNL1        0.0371
     22 C         143.8940  141.9616  159.5445 C.ar    1  UNL1        0.1391
     23 C         143.1119  143.0992  160.1313 C.ar    1  UNL1        0.0371
     24 C         142.1981  142.8589  161.2963 C.ar    1  UNL1        0.0076
     25 O         144.8078  142.2019  158.3795 O.3     1  UNL1       -0.4690
     26 C         144.9928  141.1370  157.3394 C.3     1  UNL1        0.2508
     27 C         145.8673  141.3959  156.1484 C.ar    1  UNL1        0.1026
     28 C         147.1051  142.2304  156.2940 C.ar    1  UNL1        0.0185
     29 C         147.9796  142.4892  155.1031 C.ar    1  UNL1        0.0029
     30 C         147.6162  141.9135  153.7666 C.ar    1  UNL1        0.0207
     31 C         146.3783  141.0790  153.6209 C.ar    1  UNL1        0.0986
     32 N         145.5038  140.8201  154.8118 N.ar    1  UNL1       -0.2445
@<TRIPOS>BOND
     1     5     6    1
     2     6     7   ar
     3     7     8   ar
     4     8     9   ar
     5     9    13    1
     6    13    14   ar
     7    14    15   ar
     8    15    16   ar
     9    16    17   ar
    10     9    10   ar
    11    10    11    1
    12    10    12   ar
    13    12     1    1
    14     1     2   am
    15     2     3    2
    16     2    19    1
    17    19    20   ar
    18    20    21   ar
    19    21    22   ar
    20    22    25    1
    21    25    26    1
    22    26    27    1
    23    27    28   ar
    24    28    29   ar
    25    29    30   ar
    26    30    31   ar
    27    31    32   ar
    28    22    23   ar
    29    23    24   ar
    30    12     6   ar
    31    24    19   ar
    32    17    13   ar
    33    32    27   ar
    34    17    18    1
    35     1     4    1
@<TRIPOS>MOLECULE
*****
 32 35 0 0 0
SMALL
GASTEIGER

@<TRIPOS>ATOM
      1 N         140.6913  139.7829  164.3759 N.am    1  UNL1       -0.2809
      2 C         141.6228  138.6814  163.9652 C.2     1  UNL1        0.2495
      3 O         142.2006  137.7626  165.0006 O.2     1  UNL1       -0.2698
      4 H         140.3121  140.3859  163.6964 H       1  UNL1        0.1552
      5 C         138.1952  138.5364  165.4787 C.3     1  UNL1        0.0323
      6 C         139.0894  139.3424  166.3735 C.ar    1  UNL1       -0.0087
      7 C         138.7357  139.5252  167.8197 C.ar    1  UNL1       -0.0030
      8 C         139.6299  140.3313  168.7145 C.ar    1  UNL1        0.0024
      9 C         140.8779  140.9545  168.1631 C.ar    1  UNL1        0.0312
     10 C         141.2317  140.7717  166.7170 C.ar    1  UNL1       -0.0058
     11 C         142.4797  141.3950  166.1655 C.3     1  UNL1        0.0324
     12 C         140.3374  139.9657  165.8222 C.ar    1  UNL1        0.0426
     13 C         141.7721  141.7605  169.0579 C.ar    1  UNL1        0.1403
     14 N         141.4331  143.0795  169.6866 N.ar    1  UNL1       -0.2254
     15 C         142.6138  143.5233  170.4984 C.ar    1  UNL1        0.1189
     16 C         143.6826  142.4785  170.3714 C.ar    1  UNL1        0.0945
     17 N         143.1624  141.3891  169.4811 N.ar    1  UNL1       -0.3361
     18 H         143.6482  140.5735  169.2204 H       1  UNL1        0.1674
     19 C         141.9767  138.4986  162.5191 C.ar    1  UNL1        0.0539
     20 C         140.9142  138.6143  161.4665 C.ar    1  UNL1        0.0076
     21 C         141.2681  138.4315  160.0203 C.ar    1  UNL1        0.0371
     22 C         142.6844  138.1329  159.6267 C.ar    1  UNL1        0.1391
     23 C         143.7469  138.0171  160.6793 C.ar    1  UNL1        0.0371
     24 C         143.3930  138.1999  162.1254 C.ar    1  UNL1        0.0076
     25 O         143.0383  137.9501  158.1806 O.3     1  UNL1       -0.4690
     26 C         142.8782  139.0905  157.2194 C.3     1  UNL1        0.2508
     27 C         143.9554  140.1275  157.0999 C.ar    1  UNL1        0.1026
     28 C         143.9371  141.3341  157.9908 C.ar    1  UNL1        0.0185
     29 C         145.0142  142.3711  157.8713 C.ar    1  UNL1        0.0029
     30 C         146.1098  142.2015  156.8609 C.ar    1  UNL1        0.0207
     31 C         146.1282  140.9949  155.9700 C.ar    1  UNL1        0.0986
     32 N         145.0510  139.9579  156.0895 N.ar    1  UNL1       -0.2445
@<TRIPOS>BOND
     1     5     6    1
     2     6     7   ar
     3     7     8   ar
     4     8     9   ar
     5     9    13    1
     6    13    14   ar
     7    14    15   ar
     8    15    16   ar
     9    16    17   ar
    10     9    10   ar
    11    10    11    1
    12    10    12   ar
    13    12     1    1
    14     1     2   am
    15     2     3    2
    16     2    19    1
    17    19    20   ar
    18    20    21   ar
    19    21    22   ar
    20    22    25    1
    21    25    26    1
    22    26    27    1
    23    27    28   ar
    24    28    29   ar
    25    29    30   ar
    26    30    31   ar
    27    31    32   ar
    28    22    23   ar
    29    23    24   ar
    30    12     6   ar
    31    24    19   ar
    32    17    13   ar
    33    32    27   ar
    34    17    18    1
    35     1     4    1
@<TRIPOS>MOLECULE
*****
 32 35 0 0 0
SMALL
GASTEIGER

@<TRIPOS>ATOM
      1 N         141.4596  140.8348  163.4908 N.am    1  UNL1       -0.2809
      2 C         140.0508  140.5451  163.0648 C.2     1  UNL1        0.2495
      3 O         139.1646  139.6991  163.9303 O.2     1  UNL1       -0.2698
      4 H         142.0413  141.3901  162.9227 H       1  UNL1        0.1552
      5 C         142.5897  138.0572  163.5796 C.3     1  UNL1        0.0323
      6 C         142.5471  138.8899  164.8266 C.ar    1  UNL1       -0.0087
      7 C         143.0696  138.3337  166.1180 C.ar    1  UNL1       -0.0030
      8 C         143.0270  139.1664  167.3649 C.ar    1  UNL1        0.0024
      9 C         142.4620  140.5552  167.3205 C.ar    1  UNL1        0.0312
     10 C         141.9396  141.1113  166.0291 C.ar    1  UNL1       -0.0058
     11 C         141.3745  142.5001  165.9847 C.3     1  UNL1        0.0324
     12 C         141.9821  140.2786  164.7822 C.ar    1  UNL1        0.0426
     13 C         142.4195  141.3878  168.5675 C.ar    1  UNL1        0.1403
     14 N         143.4241  142.4270  168.9685 N.ar    1  UNL1       -0.2254
     15 C         142.9904  143.0089  170.2812 C.ar    1  UNL1        0.1189
     16 C         141.7176  142.3294  170.6915 C.ar    1  UNL1        0.0945
     17 N         141.3648  141.3275  169.6324 N.ar    1  UNL1       -0.3361
     18 H         140.5790  140.7345  169.6356 H       1  UNL1        0.1674
     19 C         139.5283  141.1012  161.7735 C.ar    1  UNL1        0.0539
     20 C         138.9118  140.1859  160.7576 C.ar    1  UNL1        0.0076
     21 C         138.3892  140.7422  159.4661 C.ar    1  UNL1        0.0371
     22 C         138.4832  142.2136  159.1907 C.ar    1  UNL1        0.1391
     23 C         139.0997  143.1289  160.2067 C.ar    1  UNL1        0.0371
     24 C         139.6223  142.5728  161.4980 C.ar    1  UNL1        0.0076
     25 O         137.9607  142.7698  157.8994 O.3     1  UNL1       -0.4690
     26 C         138.0108  141.9402  156.6507 C.3     1  UNL1        0.2508
     27 C         136.7377  141.4823  156.0029 C.ar    1  UNL1        0.1026
     28 C         136.4568  141.8315  154.5714 C.ar    1  UNL1        0.0185
     29 C         135.1838  141.3736  153.9236 C.ar    1  UNL1        0.0029
     30 C         134.1917  140.5664  154.7073 C.ar    1  UNL1        0.0207
     31 C         134.4727  140.2171  156.1387 C.ar    1  UNL1        0.0986
     32 N         135.7457  140.6751  156.7865 N.ar    1  UNL1       -0.2445
@<TRIPOS>BOND
     1     5     6    1
     2     6     7   ar
     3     7     8   ar
     4     8     9   ar
     5     9    13    1
     6    13    14   ar
     7    14    15   ar
     8    15    16   ar
     9    16    17   ar
    10     9    10   ar
    11    10    11    1
    12    10    12   ar
    13    12     1    1
    14     1     2   am
    15     2     3    2
    16     2    19    1
    17    19    20   ar
    18    20    21   ar
    19    21    22   ar
    20    22    25    1
    21    25    26    1
    22    26    27    1
    23    27    28   ar
    24    28    29   ar
    25    29    30   ar
    26    30    31   ar
    27    31    32   ar
    28    22    23   ar
    29    23    24   ar
    30    12     6   ar
    31    24    19   ar
    32    17    13   ar
    33    32    27   ar
    34    17    18    1
    35     1     4    1
