@<TRIPOS>MOLECULE
*****
 31 35 0 0 0
SMALL
GASTEIGER

@<TRIPOS>ATOM
      1 C         142.2365  142.4177  170.6799 C.ar    1  UNL1        0.1873
      2 N         141.2498  142.3132  171.8049 N.ar    1  UNL1       -0.1273
      3 N         140.0753  141.5168  171.3188 N.ar    1  UNL1       -0.1316
      4 C         140.3361  141.1292  169.8934 C.ar    1  UNL1        0.1615
      5 N         141.6717  141.6860  169.4986 N.ar    1  UNL1       -0.2944
      6 C         142.2012  141.4548  168.1143 C.3     1  UNL1        0.1302
      7 C         141.3949  140.6667  167.1249 C.3     1  UNL1        0.1186
      8 N         140.0593  140.1098  167.5197 N.am    1  UNL1       -0.2688
      9 C         139.2530  139.3218  166.5303 C.2     1  UNL1        0.2493
     10 O         137.9174  138.7650  166.9252 O.2     1  UNL1       -0.2699
     11 C         139.5298  140.3411  168.9041 C.3     1  UNL1        0.1343
     12 C         138.1942  139.7843  169.2989 C.3     1  UNL1        0.0298
     13 C         139.7825  139.0906  165.1461 C.ar    1  UNL1        0.0536
     14 C         140.5302  137.8292  164.8301 C.ar    1  UNL1        0.0045
     15 C         141.0597  137.5980  163.4457 C.ar    1  UNL1        0.0006
     16 C         140.8414  138.6281  162.3775 C.ar    1  UNL1        0.0060
     17 C         140.0937  139.8895  162.6936 C.ar    1  UNL1        0.0006
     18 C         139.5642  140.1207  164.0778 C.ar    1  UNL1        0.0045
     19 C         141.3708  138.3969  160.9932 C.ar    1  UNL1        0.0295
     20 C         142.6733  137.7391  160.6458 C.ar    1  UNL1        0.0070
     21 C         142.7982  137.7186  159.1512 C.ar    1  UNL1        0.0075
     22 C         141.5728  138.3638  158.5748 C.ar    1  UNL1        0.0354
     23 S         140.6906  138.7831  159.7133 S.2     1  UNL1       -0.0864
     24 C         145.2968  144.7307  171.2722 C.ar    1  UNL1        0.2054
     25 N         143.8622  144.3672  171.5175 N.ar    1  UNL1       -0.2088
     26 C         143.5562  143.1292  170.7279 C.ar    1  UNL1        0.1573
     27 C         144.8015  142.7274  169.9945 C.ar    1  UNL1        0.2033
     28 O         145.8772  143.7172  170.3309 O.2     1  UNL1       -0.4352
     29 C         147.0660  145.6820  172.9199 C.3     1  UNL1        0.0097
     30 C         146.0232  145.9018  171.8642 C.3     1  UNL1        0.0766
     31 C         145.7069  147.2929  171.4007 C.3     1  UNL1        0.0097
@<TRIPOS>BOND
     1    29    30    1
     2    30    31    1
     3    30    24    1
     4    24    25   ar
     5    25    26   ar
     6    26     1    1
     7     1     2   ar
     8     2     3   ar
     9     3     4   ar
    10     4     5   ar
    11     5     6    1
    12     6     7    1
    13     7     8    1
    14     8     9   am
    15     9    10    2
    16     9    13    1
    17    13    14   ar
    18    14    15   ar
    19    15    16   ar
    20    16    19    1
    21    19    20   ar
    22    20    21   ar
    23    21    22   ar
    24    22    23   ar
    25    16    17   ar
    26    17    18   ar
    27     8    11    1
    28    11    12    1
    29    26    27   ar
    30    27    28   ar
    31    28    24   ar
    32     5     1   ar
    33    18    13   ar
    34    11     4    1
    35    23    19   ar
@<TRIPOS>MOLECULE
*****
 31 35 0 0 0
SMALL
GASTEIGER

@<TRIPOS>ATOM
      1 C         138.4174  141.3294  163.4424 C.ar    1  UNL1        0.1873
      2 N         137.7584  142.6636  163.2535 N.ar    1  UNL1       -0.1273
      3 N         137.7603  142.9779  161.7869 N.ar    1  UNL1       -0.1316
      4 C         138.4203  141.8380  161.0693 C.ar    1  UNL1        0.1615
      5 N         138.8264  140.8191  162.0925 N.ar    1  UNL1       -0.2944
      6 C         139.5162  139.5584  161.6629 C.3     1  UNL1        0.1302
      7 C         139.8000  139.3165  160.2099 C.3     1  UNL1        0.1186
      8 N         139.3939  140.3353  159.1867 N.am    1  UNL1       -0.2688
      9 C         139.6776  140.0934  157.7338 C.2     1  UNL1        0.2493
     10 O         139.2714  141.1123  156.7105 O.2     1  UNL1       -0.2699
     11 C         138.7040  141.5961  159.6164 C.3     1  UNL1        0.1343
     12 C         138.2979  142.6150  158.5932 C.3     1  UNL1        0.0298
     13 C         140.3674  138.8327  157.3041 C.ar    1  UNL1        0.0536
     14 C         139.6459  137.8393  156.4423 C.ar    1  UNL1        0.0045
     15 C         140.3358  136.5785  156.0126 C.ar    1  UNL1        0.0006
     16 C         141.7471  136.3112  156.4448 C.ar    1  UNL1        0.0060
     17 C         142.4685  137.3045  157.3066 C.ar    1  UNL1        0.0006
     18 C         141.7787  138.5653  157.7362 C.ar    1  UNL1        0.0045
     19 C         142.4370  135.0504  156.0151 C.ar    1  UNL1        0.0295
     20 C         142.1266  134.2509  154.7845 C.ar    1  UNL1        0.0070
     21 C         143.0561  133.0742  154.7495 C.ar    1  UNL1        0.0075
     22 C         143.9411  133.1464  155.9585 C.ar    1  UNL1        0.0354
     23 S         143.5584  134.3678  156.7408 S.2     1  UNL1       -0.0864
     24 C         139.3675  140.1285  167.0091 C.ar    1  UNL1        0.2054
     25 N         139.4191  141.1528  165.9144 N.ar    1  UNL1       -0.2088
     26 C         138.6299  140.6285  164.7515 C.ar    1  UNL1        0.1573
     27 C         138.0906  139.2802  165.1274 C.ar    1  UNL1        0.2033
     28 O         138.5465  138.9712  166.5226 O.2     1  UNL1       -0.4352
     29 C         139.1827  140.4252  169.5835 C.3     1  UNL1        0.0097
     30 C         140.0220  140.2416  168.3539 C.3     1  UNL1        0.0766
     31 C         141.5159  140.1712  168.4693 C.3     1  UNL1        0.0097
@<TRIPOS>BOND
     1    29    30    1
     2    30    31    1
     3    30    24    1
     4    24    25   ar
     5    25    26   ar
     6    26     1    1
     7     1     2   ar
     8     2     3   ar
     9     3     4   ar
    10     4     5   ar
    11     5     6    1
    12     6     7    1
    13     7     8    1
    14     8     9   am
    15     9    10    2
    16     9    13    1
    17    13    14   ar
    18    14    15   ar
    19    15    16   ar
    20    16    19    1
    21    19    20   ar
    22    20    21   ar
    23    21    22   ar
    24    22    23   ar
    25    16    17   ar
    26    17    18   ar
    27     8    11    1
    28    11    12    1
    29    26    27   ar
    30    27    28   ar
    31    28    24   ar
    32     5     1   ar
    33    18    13   ar
    34    11     4    1
    35    23    19   ar
@<TRIPOS>MOLECULE
*****
 31 35 0 0 0
SMALL
GASTEIGER

@<TRIPOS>ATOM
      1 C         138.5437  141.6131  161.1752 C.ar    1  UNL1        0.1873
      2 N         138.1381  142.9449  160.6168 N.ar    1  UNL1       -0.1273
      3 N         138.4511  142.9471  159.1498 N.ar    1  UNL1       -0.1316
      4 C         139.0500  141.6166  158.8016 C.ar    1  UNL1        0.1615
      5 N         139.1073  140.7922  160.0534 N.ar    1  UNL1       -0.2944
      6 C         139.6652  139.4005  160.0100 C.3     1  UNL1        0.1302
      7 C         140.1659  138.8332  158.7148 C.3     1  UNL1        0.1186
      8 N         140.1086  139.6577  157.4630 N.am    1  UNL1       -0.2688
      9 C         140.6093  139.0904  156.1678 C.2     1  UNL1        0.2493
     10 O         140.5521  139.9149  154.9160 O.2     1  UNL1       -0.2699
     11 C         139.5507  141.0494  157.5064 C.3     1  UNL1        0.1343
     12 C         139.4935  141.8739  156.2546 C.3     1  UNL1        0.0298
     13 C         141.1672  137.6988  156.1244 C.ar    1  UNL1        0.0536
     14 C         142.4557  137.3851  156.8253 C.ar    1  UNL1        0.0045
     15 C         143.0136  135.9933  156.7819 C.ar    1  UNL1        0.0006
     16 C         142.2830  134.9153  156.0376 C.ar    1  UNL1        0.0060
     17 C         140.9944  135.2290  155.3367 C.ar    1  UNL1        0.0006
     18 C         140.4366  136.6207  155.3801 C.ar    1  UNL1        0.0045
     19 C         142.8409  133.5235  155.9942 C.ar    1  UNL1        0.0295
     20 C         144.2714  133.1393  156.2307 C.ar    1  UNL1        0.0070
     21 C         144.3808  131.6500  156.0893 C.ar    1  UNL1        0.0075
     22 C         143.0178  131.1137  155.7655 C.ar    1  UNL1        0.0354
     23 S         142.0660  132.2717  155.7067 S.2     1  UNL1       -0.0864
     24 C         138.3451  139.8016  164.6023 C.ar    1  UNL1        0.2054
     25 N         138.5611  139.7773  163.1181 N.ar    1  UNL1       -0.2088
     26 C         138.4093  141.1785  162.6046 C.ar    1  UNL1        0.1573
     27 C         138.0995  142.0688  163.7714 C.ar    1  UNL1        0.2033
     28 O         138.0598  141.2178  165.0060 O.2     1  UNL1       -0.4352
     29 C         139.0634  137.3487  165.0684 C.3     1  UNL1        0.0097
     30 C         138.4040  138.6176  165.5213 C.3     1  UNL1        0.0766
     31 C         137.8036  138.7025  166.8932 C.3     1  UNL1        0.0097
@<TRIPOS>BOND
     1    29    30    1
     2    30    31    1
     3    30    24    1
     4    24    25   ar
     5    25    26   ar
     6    26     1    1
     7     1     2   ar
     8     2     3   ar
     9     3     4   ar
    10     4     5   ar
    11     5     6    1
    12     6     7    1
    13     7     8    1
    14     8     9   am
    15     9    10    2
    16     9    13    1
    17    13    14   ar
    18    14    15   ar
    19    15    16   ar
    20    16    19    1
    21    19    20   ar
    22    20    21   ar
    23    21    22   ar
    24    22    23   ar
    25    16    17   ar
    26    17    18   ar
    27     8    11    1
    28    11    12    1
    29    26    27   ar
    30    27    28   ar
    31    28    24   ar
    32     5     1   ar
    33    18    13   ar
    34    11     4    1
    35    23    19   ar
@<TRIPOS>MOLECULE
*****
 31 35 0 0 0
SMALL
GASTEIGER

@<TRIPOS>ATOM
      1 C         142.9376  143.4314  158.4197 C.ar    1  UNL1        0.1873
      2 N         142.2124  144.5458  157.7254 N.ar    1  UNL1       -0.1273
      3 N         141.3482  145.2378  158.7375 N.ar    1  UNL1       -0.1316
      4 C         141.5393  144.5510  160.0573 C.ar    1  UNL1        0.1615
      5 N         142.5217  143.4346  159.8609 N.ar    1  UNL1       -0.2944
      6 C         142.9105  142.5652  161.0197 C.3     1  UNL1        0.1302
      7 C         142.3170  142.8122  162.3750 C.3     1  UNL1        0.1186
      8 N         141.3346  143.9286  162.5714 N.am    1  UNL1       -0.2688
      9 C         140.7411  144.1756  163.9266 C.2     1  UNL1        0.2493
     10 O         139.7587  145.2921  164.1230 O.2     1  UNL1       -0.2699
     11 C         140.9458  144.7980  161.4125 C.3     1  UNL1        0.1343
     12 C         139.9635  145.9145  161.6089 C.3     1  UNL1        0.0298
     13 C         141.1299  143.3062  165.0854 C.ar    1  UNL1        0.0536
     14 C         140.0702  142.7006  165.9575 C.ar    1  UNL1        0.0045
     15 C         140.4591  141.8312  167.1163 C.ar    1  UNL1        0.0006
     16 C         141.9076  141.5673  167.4031 C.ar    1  UNL1        0.0060
     17 C         142.9672  142.1729  166.5311 C.ar    1  UNL1        0.0006
     18 C         142.5784  143.0423  165.3723 C.ar    1  UNL1        0.0045
     19 C         142.2965  140.6979  168.5620 C.ar    1  UNL1        0.0295
     20 C         142.4314  139.2042  168.5373 C.ar    1  UNL1        0.0070
     21 C         142.8370  138.7527  169.9090 C.ar    1  UNL1        0.0075
     22 C         142.9528  139.9674  170.7815 C.ar    1  UNL1        0.0354
     23 S         142.6187  141.1697  169.9489 S.2     1  UNL1       -0.0864
     24 C         145.6476  141.5670  156.3591 C.ar    1  UNL1        0.2054
     25 N         144.8759  142.8109  156.6867 N.ar    1  UNL1       -0.2088
     26 C         143.9084  142.4806  157.7844 C.ar    1  UNL1        0.1573
     27 C         144.0822  141.0326  158.1353 C.ar    1  UNL1        0.2033
     28 O         145.1571  140.4680  157.2545 O.2     1  UNL1       -0.4352
     29 C         148.1382  141.8015  155.6575 C.3     1  UNL1        0.0097
     30 C         146.7212  141.4438  155.3190 C.3     1  UNL1        0.0766
     31 C         146.3781  140.9630  153.9402 C.3     1  UNL1        0.0097
@<TRIPOS>BOND
     1    29    30    1
     2    30    31    1
     3    30    24    1
     4    24    25   ar
     5    25    26   ar
     6    26     1    1
     7     1     2   ar
     8     2     3   ar
     9     3     4   ar
    10     4     5   ar
    11     5     6    1
    12     6     7    1
    13     7     8    1
    14     8     9   am
    15     9    10    2
    16     9    13    1
    17    13    14   ar
    18    14    15   ar
    19    15    16   ar
    20    16    19    1
    21    19    20   ar
    22    20    21   ar
    23    21    22   ar
    24    22    23   ar
    25    16    17   ar
    26    17    18   ar
    27     8    11    1
    28    11    12    1
    29    26    27   ar
    30    27    28   ar
    31    28    24   ar
    32     5     1   ar
    33    18    13   ar
    34    11     4    1
    35    23    19   ar
@<TRIPOS>MOLECULE
*****
 31 35 0 0 0
SMALL
GASTEIGER

@<TRIPOS>ATOM
      1 C         143.7941  140.6132  157.3972 C.ar    1  UNL1        0.1873
      2 N         142.8885  139.9799  156.3828 N.ar    1  UNL1       -0.1273
      3 N         141.7357  139.3589  157.1144 N.ar    1  UNL1       -0.1316
      4 C         141.9287  139.6083  158.5809 C.ar    1  UNL1        0.1615
      5 N         143.2009  140.3835  158.7557 N.ar    1  UNL1       -0.2944
      6 C         143.6548  140.7801  160.1292 C.3     1  UNL1        0.1302
      7 C         142.8365  140.4015  161.3280 C.3     1  UNL1        0.1186
      8 N         141.5643  139.6263  161.1532 N.am    1  UNL1       -0.2688
      9 C         140.7461  139.2477  162.3520 C.2     1  UNL1        0.2493
     10 O         139.4739  138.4725  162.1772 O.2     1  UNL1       -0.2699
     11 C         141.1104  139.2297  159.7796 C.3     1  UNL1        0.1343
     12 C         139.8382  138.4545  159.6048 C.3     1  UNL1        0.0298
     13 C         141.2000  139.6443  163.7255 C.ar    1  UNL1        0.0536
     14 C         140.7092  140.9228  164.3376 C.ar    1  UNL1        0.0045
     15 C         141.1632  141.3194  165.7112 C.ar    1  UNL1        0.0006
     16 C         142.1079  140.4375  166.4726 C.ar    1  UNL1        0.0060
     17 C         142.5986  139.1590  165.8605 C.ar    1  UNL1        0.0006
     18 C         142.1447  138.7624  164.4870 C.ar    1  UNL1        0.0045
     19 C         142.5619  140.8341  167.8462 C.ar    1  UNL1        0.0295
     20 C         143.1698  142.1511  168.2279 C.ar    1  UNL1        0.0070
     21 C         143.4712  142.1142  169.6968 C.ar    1  UNL1        0.0075
     22 C         143.0496  140.7743  170.2230 C.ar    1  UNL1        0.0354
     23 S         142.4876  139.9830  169.0792 S.2     1  UNL1       -0.0864
     24 C         147.1318  142.0573  156.0407 C.ar    1  UNL1        0.2054
     25 N         145.9814  141.0999  155.9399 N.ar    1  UNL1       -0.2088
     26 C         145.0690  141.3472  157.1045 C.ar    1  UNL1        0.1573
     27 C         145.6554  142.4575  157.9251 C.ar    1  UNL1        0.2033
     28 O         146.9302  142.8964  157.2677 O.2     1  UNL1       -0.4352
     29 C         148.0882  142.8074  153.7444 C.3     1  UNL1        0.0097
     30 C         148.2816  142.1580  155.0828 C.3     1  UNL1        0.0766
     31 C         149.6248  141.6094  155.4631 C.3     1  UNL1        0.0097
@<TRIPOS>BOND
     1    29    30    1
     2    30    31    1
     3    30    24    1
     4    24    25   ar
     5    25    26   ar
     6    26     1    1
     7     1     2   ar
     8     2     3   ar
     9     3     4   ar
    10     4     5   ar
    11     5     6    1
    12     6     7    1
    13     7     8    1
    14     8     9   am
    15     9    10    2
    16     9    13    1
    17    13    14   ar
    18    14    15   ar
    19    15    16   ar
    20    16    19    1
    21    19    20   ar
    22    20    21   ar
    23    21    22   ar
    24    22    23   ar
    25    16    17   ar
    26    17    18   ar
    27     8    11    1
    28    11    12    1
    29    26    27   ar
    30    27    28   ar
    31    28    24   ar
    32     5     1   ar
    33    18    13   ar
    34    11     4    1
    35    23    19   ar
@<TRIPOS>MOLECULE
*****
 31 35 0 0 0
SMALL
GASTEIGER

@<TRIPOS>ATOM
      1 C         138.8010  142.2593  158.6103 C.ar    1  UNL1        0.1873
      2 N         137.9111  141.3317  157.8374 N.ar    1  UNL1       -0.1273
      3 N         137.6033  140.1508  158.7097 N.ar    1  UNL1       -0.1316
      4 C         138.3030  140.3487  160.0216 C.ar    1  UNL1        0.1615
      5 N         139.0432  141.6519  159.9602 N.ar    1  UNL1       -0.2944
      6 C         139.8422  142.1169  161.1414 C.3     1  UNL1        0.1302
      7 C         139.9009  141.2789  162.3841 C.3     1  UNL1        0.1186
      8 N         139.1607  139.9757  162.4456 N.am    1  UNL1       -0.2688
      9 C         139.2193  139.1376  163.6882 C.2     1  UNL1        0.2493
     10 O         138.4791  137.8345  163.7496 O.2     1  UNL1       -0.2699
     11 C         138.3617  139.5106  161.2643 C.3     1  UNL1        0.1343
     12 C         137.6214  138.2075  161.3257 C.3     1  UNL1        0.0298
     13 C         140.0183  139.6027  164.8694 C.ar    1  UNL1        0.0536
     14 C         139.3470  140.3563  165.9791 C.ar    1  UNL1        0.0045
     15 C         140.1461  140.8214  167.1604 C.ar    1  UNL1        0.0006
     16 C         141.6163  140.5329  167.2318 C.ar    1  UNL1        0.0060
     17 C         142.2876  139.7794  166.1221 C.ar    1  UNL1        0.0006
     18 C         141.4886  139.3143  164.9409 C.ar    1  UNL1        0.0045
     19 C         142.4154  140.9980  168.4131 C.ar    1  UNL1        0.0295
     20 C         143.2144  142.2649  168.4934 C.ar    1  UNL1        0.0070
     21 C         143.8485  142.3277  169.8513 C.ar    1  UNL1        0.0075
     22 C         143.4414  141.0995  170.6103 C.ar    1  UNL1        0.0354
     23 S         142.5556  140.2777  169.7213 S.2     1  UNL1       -0.0864
     24 C         139.9184  145.4377  156.6828 C.ar    1  UNL1        0.2054
     25 N         139.2202  144.1108  156.7284 N.ar    1  UNL1       -0.2088
     26 C         139.3521  143.5653  158.1195 C.ar    1  UNL1        0.1573
     27 C         140.1317  144.5549  158.9336 C.ar    1  UNL1        0.2033
     28 O         140.4817  145.7121  158.0456 O.2     1  UNL1       -0.4352
     29 C         139.2350  147.6012  155.4170 C.3     1  UNL1        0.0097
     30 C         140.0330  146.3328  155.4847 C.3     1  UNL1        0.0766
     31 C         140.9457  145.9598  154.3543 C.3     1  UNL1        0.0097
@<TRIPOS>BOND
     1    29    30    1
     2    30    31    1
     3    30    24    1
     4    24    25   ar
     5    25    26   ar
     6    26     1    1
     7     1     2   ar
     8     2     3   ar
     9     3     4   ar
    10     4     5   ar
    11     5     6    1
    12     6     7    1
    13     7     8    1
    14     8     9   am
    15     9    10    2
    16     9    13    1
    17    13    14   ar
    18    14    15   ar
    19    15    16   ar
    20    16    19    1
    21    19    20   ar
    22    20    21   ar
    23    21    22   ar
    24    22    23   ar
    25    16    17   ar
    26    17    18   ar
    27     8    11    1
    28    11    12    1
    29    26    27   ar
    30    27    28   ar
    31    28    24   ar
    32     5     1   ar
    33    18    13   ar
    34    11     4    1
    35    23    19   ar
@<TRIPOS>MOLECULE
*****
 31 35 0 0 0
SMALL
GASTEIGER

@<TRIPOS>ATOM
      1 C         143.0390  138.0756  156.5617 C.ar    1  UNL1        0.1873
      2 N         143.2617  138.9811  155.3867 N.ar    1  UNL1       -0.1273
      3 N         143.4496  140.3759  155.9056 N.ar    1  UNL1       -0.1316
      4 C         143.3430  140.3325  157.4011 C.ar    1  UNL1        0.1615
      5 N         143.0892  138.9108  157.8066 N.ar    1  UNL1       -0.2944
      6 C         142.9367  138.5604  159.2571 C.3     1  UNL1        0.1302
      7 C         143.0379  139.6317  160.3022 C.3     1  UNL1        0.1186
      8 N         143.2917  141.0534  159.8967 N.am    1  UNL1       -0.2688
      9 C         143.3929  142.1247  160.9416 C.2     1  UNL1        0.2493
     10 O         143.6467  143.5464  160.5361 O.2     1  UNL1       -0.2699
     11 C         143.4443  141.4038  158.4461 C.3     1  UNL1        0.1343
     12 C         143.6981  142.8254  158.0406 C.3     1  UNL1        0.0298
     13 C         143.2403  141.7744  162.3921 C.ar    1  UNL1        0.0536
     14 C         144.4501  141.4443  163.2153 C.ar    1  UNL1        0.0045
     15 C         144.2975  141.0940  164.6658 C.ar    1  UNL1        0.0006
     16 C         142.9351  141.0736  165.2931 C.ar    1  UNL1        0.0060
     17 C         141.7254  141.4036  164.4700 C.ar    1  UNL1        0.0006
     18 C         141.8779  141.7540  163.0195 C.ar    1  UNL1        0.0045
     19 C         142.7825  140.7232  166.7437 C.ar    1  UNL1        0.0295
     20 C         142.6466  139.3397  167.3070 C.ar    1  UNL1        0.0070
     21 C         142.5191  139.4563  168.7970 C.ar    1  UNL1        0.0075
     22 C         142.5762  140.9120  169.1546 C.ar    1  UNL1        0.0354
     23 S         142.7389  141.6950  167.8855 S.2     1  UNL1       -0.0864
     24 C         143.0899  134.2008  156.7832 C.ar    1  UNL1        0.2054
     25 N         143.7066  135.5378  157.0702 N.ar    1  UNL1       -0.2088
     26 C         142.8068  136.5949  156.5021 C.ar    1  UNL1        0.1573
     27 C         141.6339  135.9114  155.8640 C.ar    1  UNL1        0.2033
     28 O         141.8089  134.4318  156.0377 O.2     1  UNL1       -0.4352
     29 C         142.9629  131.6061  156.7481 C.3     1  UNL1        0.0097
     30 C         143.6549  132.8672  157.1732 C.3     1  UNL1        0.0766
     31 C         144.9120  132.7946  157.9883 C.3     1  UNL1        0.0097
@<TRIPOS>BOND
     1    29    30    1
     2    30    31    1
     3    30    24    1
     4    24    25   ar
     5    25    26   ar
     6    26     1    1
     7     1     2   ar
     8     2     3   ar
     9     3     4   ar
    10     4     5   ar
    11     5     6    1
    12     6     7    1
    13     7     8    1
    14     8     9   am
    15     9    10    2
    16     9    13    1
    17    13    14   ar
    18    14    15   ar
    19    15    16   ar
    20    16    19    1
    21    19    20   ar
    22    20    21   ar
    23    21    22   ar
    24    22    23   ar
    25    16    17   ar
    26    17    18   ar
    27     8    11    1
    28    11    12    1
    29    26    27   ar
    30    27    28   ar
    31    28    24   ar
    32     5     1   ar
    33    18    13   ar
    34    11     4    1
    35    23    19   ar
@<TRIPOS>MOLECULE
*****
 31 35 0 0 0
SMALL
GASTEIGER

@<TRIPOS>ATOM
      1 C         141.1790  141.1169  159.6690 C.ar    1  UNL1        0.1873
      2 N         142.0897  142.2849  159.4320 N.ar    1  UNL1       -0.1273
      3 N         143.1293  141.8672  158.4347 N.ar    1  UNL1       -0.1316
      4 C         142.8611  140.4410  158.0552 C.ar    1  UNL1        0.1615
      5 N         141.6557  139.9772  158.8181 N.ar    1  UNL1       -0.2944
      6 C         141.1479  138.5772  158.6393 C.3     1  UNL1        0.1302
      7 C         141.8456  137.6408  157.6977 C.3     1  UNL1        0.1186
      8 N         143.0509  138.1046  156.9348 N.am    1  UNL1       -0.2688
      9 C         143.7486  137.1683  155.9932 C.2     1  UNL1        0.2493
     10 O         144.9540  137.6321  155.2304 O.2     1  UNL1       -0.2699
     11 C         143.5587  139.5047  157.1136 C.3     1  UNL1        0.1343
     12 C         144.7641  139.9685  156.3507 C.3     1  UNL1        0.0298
     13 C         143.2408  135.7683  155.8145 C.ar    1  UNL1        0.0536
     14 C         142.2368  135.4658  154.7419 C.ar    1  UNL1        0.0045
     15 C         141.7290  134.0657  154.5632 C.ar    1  UNL1        0.0006
     16 C         142.2253  132.9681  155.4570 C.ar    1  UNL1        0.0060
     17 C         143.2293  133.2706  156.5296 C.ar    1  UNL1        0.0006
     18 C         143.7370  134.6706  156.7084 C.ar    1  UNL1        0.0045
     19 C         141.7175  131.5680  155.2783 C.ar    1  UNL1        0.0295
     20 C         140.4349  131.1741  154.6077 C.ar    1  UNL1        0.0070
     21 C         140.3279  129.6786  154.6538 C.ar    1  UNL1        0.0075
     22 C         141.5445  129.1482  155.3530 C.ar    1  UNL1        0.0354
     23 S         142.4033  130.3160  155.7390 S.2     1  UNL1       -0.0864
     24 C         138.6287  141.2391  162.5925 C.ar    1  UNL1        0.2054
     25 N         140.0271  141.3758  162.0671 N.ar    1  UNL1       -0.2088
     26 C         139.9987  141.0926  160.5944 C.ar    1  UNL1        0.1573
     27 C         138.5828  140.7809  160.2095 C.ar    1  UNL1        0.2033
     28 O         137.7362  140.8714  161.4443 O.2     1  UNL1       -0.4352
     29 C         138.1334  140.2625  164.9485 C.3     1  UNL1        0.0097
     30 C         138.1985  141.4356  164.0159 C.3     1  UNL1        0.0766
     31 C         137.8334  142.8051  164.5069 C.3     1  UNL1        0.0097
@<TRIPOS>BOND
     1    29    30    1
     2    30    31    1
     3    30    24    1
     4    24    25   ar
     5    25    26   ar
     6    26     1    1
     7     1     2   ar
     8     2     3   ar
     9     3     4   ar
    10     4     5   ar
    11     5     6    1
    12     6     7    1
    13     7     8    1
    14     8     9   am
    15     9    10    2
    16     9    13    1
    17    13    14   ar
    18    14    15   ar
    19    15    16   ar
    20    16    19    1
    21    19    20   ar
    22    20    21   ar
    23    21    22   ar
    24    22    23   ar
    25    16    17   ar
    26    17    18   ar
    27     8    11    1
    28    11    12    1
    29    26    27   ar
    30    27    28   ar
    31    28    24   ar
    32     5     1   ar
    33    18    13   ar
    34    11     4    1
    35    23    19   ar
@<TRIPOS>MOLECULE
*****
 31 35 0 0 0
SMALL
GASTEIGER

@<TRIPOS>ATOM
      1 C         143.2109  141.0917  169.0084 C.ar    1  UNL1        0.1873
      2 N         143.1403  139.6924  169.5441 N.ar    1  UNL1       -0.1273
      3 N         142.7668  138.7812  168.4126 N.ar    1  UNL1       -0.1316
      4 C         142.6065  139.6174  167.1777 C.ar    1  UNL1        0.1615
      5 N         142.8810  141.0453  167.5459 N.ar    1  UNL1       -0.2944
      6 C         142.7950  142.1189  166.5019 C.3     1  UNL1        0.1302
      7 C         142.4346  141.7645  165.0895 C.3     1  UNL1        0.1186
      8 N         142.1601  140.3366  164.7213 N.am    1  UNL1       -0.2688
      9 C         141.7996  139.9822  163.3091 C.2     1  UNL1        0.2493
     10 O         141.5251  138.5542  162.9409 O.2     1  UNL1       -0.2699
     11 C         142.2460  139.2630  165.7654 C.3     1  UNL1        0.1343
     12 C         141.9715  137.8350  165.3972 C.3     1  UNL1        0.0298
     13 C         141.7137  141.0558  162.2651 C.ar    1  UNL1        0.0536
     14 C         140.4342  141.8147  162.0732 C.ar    1  UNL1        0.0045
     15 C         140.3483  142.8883  161.0291 C.ar    1  UNL1        0.0006
     16 C         141.5419  143.2029  160.1770 C.ar    1  UNL1        0.0060
     17 C         142.8214  142.4440  160.3688 C.ar    1  UNL1        0.0006
     18 C         142.9074  141.3705  161.4128 C.ar    1  UNL1        0.0045
     19 C         141.4560  144.2766  159.1329 C.ar    1  UNL1        0.0295
     20 C         142.5081  144.6024  158.1146 C.ar    1  UNL1        0.0070
     21 C         142.0052  145.7400  157.2762 C.ar    1  UNL1        0.0075
     22 C         140.6422  146.1173  157.7763 C.ar    1  UNL1        0.0354
     23 S         140.3028  145.2128  158.9239 S.2     1  UNL1       -0.0864
     24 C         144.8028  144.1110  170.8565 C.ar    1  UNL1        0.2054
     25 N         144.9280  142.8777  170.0118 N.ar    1  UNL1       -0.2088
     26 C         143.5516  142.3214  169.7968 C.ar    1  UNL1        0.1573
     27 C         142.5758  143.2108  170.5087 C.ar    1  UNL1        0.2033
     28 O         143.3490  144.3168  171.1636 O.2     1  UNL1       -0.4352
     29 C         145.6458  146.3296  171.9135 C.3     1  UNL1        0.0097
     30 C         145.9328  144.9849  171.3138 C.3     1  UNL1        0.0766
     31 C         147.3499  144.5142  171.1715 C.3     1  UNL1        0.0097
@<TRIPOS>BOND
     1    29    30    1
     2    30    31    1
     3    30    24    1
     4    24    25   ar
     5    25    26   ar
     6    26     1    1
     7     1     2   ar
     8     2     3   ar
     9     3     4   ar
    10     4     5   ar
    11     5     6    1
    12     6     7    1
    13     7     8    1
    14     8     9   am
    15     9    10    2
    16     9    13    1
    17    13    14   ar
    18    14    15   ar
    19    15    16   ar
    20    16    19    1
    21    19    20   ar
    22    20    21   ar
    23    21    22   ar
    24    22    23   ar
    25    16    17   ar
    26    17    18   ar
    27     8    11    1
    28    11    12    1
    29    26    27   ar
    30    27    28   ar
    31    28    24   ar
    32     5     1   ar
    33    18    13   ar
    34    11     4    1
    35    23    19   ar
