@<TRIPOS>MOLECULE
*****
 30 34 0 0 0
SMALL
GASTEIGER

@<TRIPOS>ATOM
      1 C         141.3992  139.8037  169.3860 C.ar    1  UNL1        0.1783
      2 N         140.0414  139.6986  170.0147 N.ar    1  UNL1       -0.1291
      3 N         139.0159  139.8419  168.9295 N.ar    1  UNL1       -0.1126
      4 C         139.7398  140.0355  167.6301 C.ar    1  UNL1        0.2255
      5 N         141.2129  140.0119  167.9123 N.ar    1  UNL1       -0.2620
      6 N         139.1027  140.2203  166.2848 N.pl3   1  UNL1       -0.2777
      7 C         138.1959  139.2432  165.5970 C.3     1  UNL1        0.0939
      8 C         137.7932  139.8336  164.2782 C.3     1  UNL1        0.0256
      9 C         137.5703  140.6646  163.0495 C.3     1  UNL1        0.0079
     10 C         138.4511  141.1756  164.1509 C.3     1  UNL1        0.0397
     11 C         139.2604  141.4145  165.3911 C.3     1  UNL1        0.0976
     12 C         138.7930  142.4767  163.4874 C.ar    1  UNL1       -0.0104
     13 C         137.8383  143.6312  163.5640 C.ar    1  UNL1       -0.0011
     14 C         138.1802  144.9324  162.9005 C.ar    1  UNL1        0.0294
     15 C         139.4767  145.0790  162.1605 C.ar    1  UNL1        0.1410
     16 F         139.8186  146.3801  161.4970 F       1  UNL1       -0.2041
     17 C         140.4314  143.9244  162.0840 C.ar    1  UNL1        0.0407
     18 C         140.0895  142.6233  162.7475 C.ar    1  UNL1        0.0560
     19 CL        141.0442  141.4689  162.6710 Cl      1  UNL1       -0.0825
     20 C         142.3073  140.1689  166.8986 C.ar    1  UNL1        0.0871
     21 C         142.9550  138.9556  166.3001 C.ar    1  UNL1        0.0240
     22 C         144.0495  139.1127  165.2864 C.ar    1  UNL1        0.0592
     23 C         144.4962  140.4831  164.8713 C.ar    1  UNL1        0.2251
     24 N         143.8485  141.6964  165.4698 N.ar    1  UNL1       -0.2086
     25 C         142.7540  141.5393  166.4835 C.ar    1  UNL1        0.1196
     26 O         145.5906  140.6402  163.8576 O.3     1  UNL1       -0.4561
     27 C         145.5976  141.8262  162.9391 C.3     1  UNL1        0.2542
     28 C         142.7129  139.7159  170.1049 C.3     1  UNL1        0.2079
     29 C         143.1264  142.2806  170.0712 C.3     1  UNL1        0.1747
     30 O         143.6600  140.8789  170.0810 O.3     1  UNL1       -0.3430
@<TRIPOS>BOND
     1    29    30    1
     2    30    28    1
     3    28     1    1
     4     1     2   ar
     5     2     3   ar
     6     3     4   ar
     7     4     6    1
     8     6     7    1
     9     8     7    1
    10     8     9    1
    11     9    10    1
    12    10    12    1
    13    12    13   ar
    14    13    14   ar
    15    14    15   ar
    16    15    16    1
    17    15    17   ar
    18    17    18   ar
    19    18    19    1
    20    10    11    1
    21     4     5   ar
    22     5    20    1
    23    20    21   ar
    24    21    22   ar
    25    22    23   ar
    26    23    26    1
    27    26    27    1
    28    23    24   ar
    29    24    25   ar
    30     5     1   ar
    31    25    20   ar
    32    11     6    1
    33    10     8    1
    34    18    12   ar
@<TRIPOS>MOLECULE
*****
 30 34 0 0 0
SMALL
GASTEIGER

@<TRIPOS>ATOM
      1 C         140.2017  142.2166  169.3299 C.ar    1  UNL1        0.1783
      2 N         139.5246  141.1609  170.1529 N.ar    1  UNL1       -0.1291
      3 N         139.1609  140.0258  169.2423 N.ar    1  UNL1       -0.1126
      4 C         139.6132  140.3799  167.8567 C.ar    1  UNL1        0.2255
      5 N         140.2565  141.7338  167.9109 N.ar    1  UNL1       -0.2620
      6 N         139.4508  139.5293  166.6319 N.pl3   1  UNL1       -0.2777
      7 C         138.3612  138.5264  166.3930 C.3     1  UNL1        0.0939
      8 C         138.5864  137.9096  165.0444 C.3     1  UNL1        0.0256
      9 C         139.0601  137.4838  163.6864 C.3     1  UNL1        0.0079
     10 C         139.8152  138.5312  164.4497 C.3     1  UNL1        0.0397
     11 C         140.3494  139.5322  165.4309 C.3     1  UNL1        0.0976
     12 C         140.8716  138.7531  163.4083 C.ar    1  UNL1       -0.0104
     13 C         142.0963  137.8873  163.3860 C.ar    1  UNL1       -0.0011
     14 C         143.1529  138.1092  162.3445 C.ar    1  UNL1        0.0294
     15 C         142.9847  139.1969  161.3254 C.ar    1  UNL1        0.1410
     16 F         144.0411  139.4189  160.2840 F       1  UNL1       -0.2041
     17 C         141.7599  140.0628  161.3478 C.ar    1  UNL1        0.0407
     18 C         140.7034  139.8408  162.3892 C.ar    1  UNL1        0.0560
     19 CL        139.4787  140.7066  162.4115 Cl      1  UNL1       -0.0825
     20 C         140.8503  142.4749  166.7497 C.ar    1  UNL1        0.0871
     21 C         139.9714  143.3028  165.8597 C.ar    1  UNL1        0.0240
     22 C         140.5652  144.0438  164.6986 C.ar    1  UNL1        0.0592
     23 C         142.0379  143.9570  164.4274 C.ar    1  UNL1        0.2251
     24 N         142.9168  143.1291  165.3175 N.ar    1  UNL1       -0.2086
     25 C         142.3230  142.3881  166.4786 C.ar    1  UNL1        0.1196
     26 O         142.6318  144.6980  163.2663 O.3     1  UNL1       -0.4561
     27 C         144.0262  144.3847  162.8107 C.3     1  UNL1        0.2542
     28 C         140.7312  143.5252  169.8372 C.3     1  UNL1        0.2079
     29 C         143.1522  142.6173  170.0898 C.3     1  UNL1        0.1747
     30 O         142.0796  143.5858  170.4916 O.3     1  UNL1       -0.3430
@<TRIPOS>BOND
     1    29    30    1
     2    30    28    1
     3    28     1    1
     4     1     2   ar
     5     2     3   ar
     6     3     4   ar
     7     4     6    1
     8     6     7    1
     9     8     7    1
    10     8     9    1
    11     9    10    1
    12    10    12    1
    13    12    13   ar
    14    13    14   ar
    15    14    15   ar
    16    15    16    1
    17    15    17   ar
    18    17    18   ar
    19    18    19    1
    20    10    11    1
    21     4     5   ar
    22     5    20    1
    23    20    21   ar
    24    21    22   ar
    25    22    23   ar
    26    23    26    1
    27    26    27    1
    28    23    24   ar
    29    24    25   ar
    30     5     1   ar
    31    25    20   ar
    32    11     6    1
    33    10     8    1
    34    18    12   ar
@<TRIPOS>MOLECULE
*****
 30 34 0 0 0
SMALL
GASTEIGER

@<TRIPOS>ATOM
      1 C         139.2165  144.9476  162.4009 C.ar    1  UNL1        0.1783
      2 N         137.7262  144.9248  162.5701 N.ar    1  UNL1       -0.1291
      3 N         137.3599  143.6561  163.2814 N.ar    1  UNL1       -0.1126
      4 C         138.6237  142.8947  163.5519 C.ar    1  UNL1        0.2255
      5 N         139.7711  143.6930  163.0077 N.ar    1  UNL1       -0.2620
      6 N         138.7226  141.5681  164.2448 N.pl3   1  UNL1       -0.2777
      7 C         138.0380  140.3010  163.8254 C.3     1  UNL1        0.0939
      8 C         138.4159  139.2254  164.8003 C.3     1  UNL1        0.0256
      9 C         138.9607  138.3776  165.9113 C.3     1  UNL1        0.0079
     10 C         139.3340  139.8277  165.8222 C.3     1  UNL1        0.0397
     11 C         139.5236  141.2755  165.4789 C.3     1  UNL1        0.0976
     12 C         140.2130  139.8383  167.0375 C.ar    1  UNL1       -0.0104
     13 C         139.6151  140.0699  168.3936 C.ar    1  UNL1       -0.0011
     14 C         140.4941  140.0805  169.6090 C.ar    1  UNL1        0.0294
     15 C         141.9711  139.8595  169.4684 C.ar    1  UNL1        0.1410
     16 F         142.8501  139.8701  170.6838 F       1  UNL1       -0.2041
     17 C         142.5690  139.6279  168.1123 C.ar    1  UNL1        0.0407
     18 C         141.6900  139.6173  166.8969 C.ar    1  UNL1        0.0560
     19 CL        142.2880  139.3857  165.5409 Cl      1  UNL1       -0.0825
     20 C         141.2190  143.3046  163.0609 C.ar    1  UNL1        0.0871
     21 C         142.1404  143.9762  164.0357 C.ar    1  UNL1        0.0240
     22 C         143.5882  143.5878  164.0889 C.ar    1  UNL1        0.0592
     23 C         144.1148  142.5279  163.1673 C.ar    1  UNL1        0.2251
     24 N         143.1934  141.8563  162.1926 N.ar    1  UNL1       -0.2086
     25 C         141.7456  142.2447  162.1394 C.ar    1  UNL1        0.1196
     26 O         145.5626  142.1395  163.2205 O.3     1  UNL1       -0.4561
     27 C         145.9891  140.9421  164.0171 C.3     1  UNL1        0.2542
     28 C         140.0124  146.0343  161.7408 C.3     1  UNL1        0.2079
     29 C         140.1753  144.6025  159.5792 C.3     1  UNL1        0.1747
     30 O         140.4771  145.8688  160.3243 O.3     1  UNL1       -0.3430
@<TRIPOS>BOND
     1    29    30    1
     2    30    28    1
     3    28     1    1
     4     1     2   ar
     5     2     3   ar
     6     3     4   ar
     7     4     6    1
     8     6     7    1
     9     8     7    1
    10     8     9    1
    11     9    10    1
    12    10    12    1
    13    12    13   ar
    14    13    14   ar
    15    14    15   ar
    16    15    16    1
    17    15    17   ar
    18    17    18   ar
    19    18    19    1
    20    10    11    1
    21     4     5   ar
    22     5    20    1
    23    20    21   ar
    24    21    22   ar
    25    22    23   ar
    26    23    26    1
    27    26    27    1
    28    23    24   ar
    29    24    25   ar
    30     5     1   ar
    31    25    20   ar
    32    11     6    1
    33    10     8    1
    34    18    12   ar
@<TRIPOS>MOLECULE
*****
 30 34 0 0 0
SMALL
GASTEIGER

@<TRIPOS>ATOM
      1 C         140.8059  138.6544  161.1511 C.ar    1  UNL1        0.1783
      2 N         141.1156  137.2659  161.6267 N.ar    1  UNL1       -0.1291
      3 N         140.8418  137.2089  163.1003 N.ar    1  UNL1       -0.1126
      4 C         140.3628  138.5620  163.5355 C.ar    1  UNL1        0.2255
      5 N         140.3406  139.4554  162.3308 N.ar    1  UNL1       -0.2620
      6 N         139.9742  138.9532  164.9305 N.pl3   1  UNL1       -0.2777
      7 C         138.6330  138.7356  165.5659 C.3     1  UNL1        0.0939
      8 C         138.6884  139.2785  166.9631 C.3     1  UNL1        0.0256
      9 C         139.0396  139.8938  168.2852 C.3     1  UNL1        0.0079
     10 C         140.0639  139.8316  167.1912 C.3     1  UNL1        0.0397
     11 C         140.8585  139.6306  165.9350 C.3     1  UNL1        0.0976
     12 C         141.1624  140.4961  167.9670 C.ar    1  UNL1       -0.0104
     13 C         141.9229  139.7224  169.0028 C.ar    1  UNL1       -0.0011
     14 C         143.0215  140.3868  169.7786 C.ar    1  UNL1        0.0294
     15 C         143.3594  141.8249  169.5186 C.ar    1  UNL1        0.1410
     16 F         144.4579  142.4893  170.2943 F       1  UNL1       -0.2041
     17 C         142.5988  142.5986  168.4827 C.ar    1  UNL1        0.0407
     18 C         141.5003  141.9342  167.7069 C.ar    1  UNL1        0.0560
     19 CL        140.7398  142.7079  166.6711 Cl      1  UNL1       -0.0825
     20 C         139.9260  140.8968  162.3096 C.ar    1  UNL1        0.0871
     21 C         140.9306  141.9708  162.6051 C.ar    1  UNL1        0.0240
     22 C         140.5158  143.4122  162.5839 C.ar    1  UNL1        0.0592
     23 C         139.0964  143.7796  162.2672 C.ar    1  UNL1        0.2251
     24 N         138.0918  142.7056  161.9717 N.ar    1  UNL1       -0.2086
     25 C         138.5066  141.2643  161.9929 C.ar    1  UNL1        0.1196
     26 O         138.6817  145.2209  162.2460 O.3     1  UNL1       -0.4561
     27 C         139.6344  146.2682  161.7503 C.3     1  UNL1        0.2542
     28 C         140.9383  139.1541  159.7429 C.3     1  UNL1        0.2079
     29 C         143.5050  139.5348  159.8711 C.3     1  UNL1        0.1747
     30 O         142.1601  139.9206  159.3308 O.3     1  UNL1       -0.3430
@<TRIPOS>BOND
     1    29    30    1
     2    30    28    1
     3    28     1    1
     4     1     2   ar
     5     2     3   ar
     6     3     4   ar
     7     4     6    1
     8     6     7    1
     9     8     7    1
    10     8     9    1
    11     9    10    1
    12    10    12    1
    13    12    13   ar
    14    13    14   ar
    15    14    15   ar
    16    15    16    1
    17    15    17   ar
    18    17    18   ar
    19    18    19    1
    20    10    11    1
    21     4     5   ar
    22     5    20    1
    23    20    21   ar
    24    21    22   ar
    25    22    23   ar
    26    23    26    1
    27    26    27    1
    28    23    24   ar
    29    24    25   ar
    30     5     1   ar
    31    25    20   ar
    32    11     6    1
    33    10     8    1
    34    18    12   ar
@<TRIPOS>MOLECULE
*****
 30 34 0 0 0
SMALL
GASTEIGER

@<TRIPOS>ATOM
      1 C         140.1668  144.9188  161.0104 C.ar    1  UNL1        0.1783
      2 N         139.2550  145.8326  161.7743 N.ar    1  UNL1       -0.1291
      3 N         138.9528  145.1882  163.0946 N.ar    1  UNL1       -0.1126
      4 C         139.6777  143.8760  163.1466 C.ar    1  UNL1        0.2255
      5 N         140.4280  143.7096  161.8585 N.ar    1  UNL1       -0.2620
      6 N         139.6562  142.9014  164.2867 N.pl3   1  UNL1       -0.2777
      7 C         138.9048  141.6037  164.3231 C.3     1  UNL1        0.0939
      8 C         139.1664  140.9536  165.6494 C.3     1  UNL1        0.0256
      9 C         139.6043  140.5576  167.0283 C.3     1  UNL1        0.0079
     10 C         140.0795  141.8496  166.4327 C.3     1  UNL1        0.0397
     11 C         140.3822  143.0534  165.5904 C.3     1  UNL1        0.0976
     12 C         140.9049  142.2717  167.6119 C.ar    1  UNL1       -0.0104
     13 C         140.2845  143.0852  168.7089 C.ar    1  UNL1       -0.0011
     14 C         141.1099  143.5074  169.8882 C.ar    1  UNL1        0.0294
     15 C         142.5556  143.1160  169.9704 C.ar    1  UNL1        0.1410
     16 F         143.3810  143.5381  171.1496 F       1  UNL1       -0.2041
     17 C         143.1760  142.3025  168.8733 C.ar    1  UNL1        0.0407
     18 C         142.3506  141.8804  167.6941 C.ar    1  UNL1        0.0560
     19 CL        142.9710  141.0669  166.5971 Cl      1  UNL1       -0.0825
     20 C         141.2885  142.5393  161.4842 C.ar    1  UNL1        0.0871
     21 C         140.7867  141.5232  160.5016 C.ar    1  UNL1        0.0240
     22 C         141.6472  140.3529  160.1274 C.ar    1  UNL1        0.0592
     23 C         143.0096  140.1988  160.7359 C.ar    1  UNL1        0.2251
     24 N         143.5113  141.2149  161.7186 N.ar    1  UNL1       -0.2086
     25 C         142.6508  142.3851  162.0928 C.ar    1  UNL1        0.1196
     26 O         143.8701  139.0285  160.3617 O.3     1  UNL1       -0.4561
     27 C         143.9768  137.8507  161.2845 C.3     1  UNL1        0.2542
     28 C         140.7202  145.1702  159.6389 C.3     1  UNL1        0.2079
     29 C         142.6209  144.0200  158.2920 C.3     1  UNL1        0.1747
     30 O         142.1817  144.9652  159.3708 O.3     1  UNL1       -0.3430
@<TRIPOS>BOND
     1    29    30    1
     2    30    28    1
     3    28     1    1
     4     1     2   ar
     5     2     3   ar
     6     3     4   ar
     7     4     6    1
     8     6     7    1
     9     8     7    1
    10     8     9    1
    11     9    10    1
    12    10    12    1
    13    12    13   ar
    14    13    14   ar
    15    14    15   ar
    16    15    16    1
    17    15    17   ar
    18    17    18   ar
    19    18    19    1
    20    10    11    1
    21     4     5   ar
    22     5    20    1
    23    20    21   ar
    24    21    22   ar
    25    22    23   ar
    26    23    26    1
    27    26    27    1
    28    23    24   ar
    29    24    25   ar
    30     5     1   ar
    31    25    20   ar
    32    11     6    1
    33    10     8    1
    34    18    12   ar
@<TRIPOS>MOLECULE
*****
 30 34 0 0 0
SMALL
GASTEIGER

@<TRIPOS>ATOM
      1 C         142.4047  140.5731  169.1959 C.ar    1  UNL1        0.1783
      2 N         143.2737  141.6465  169.7813 N.ar    1  UNL1       -0.1291
      3 N         143.6802  142.5702  168.6717 N.ar    1  UNL1       -0.1126
      4 C         143.0625  142.0678  167.4005 C.ar    1  UNL1        0.2255
      5 N         142.2742  140.8334  167.7246 N.ar    1  UNL1       -0.2620
      6 N         143.2076  142.6903  166.0435 N.pl3   1  UNL1       -0.2777
      7 C         144.3890  143.4751  165.5553 C.3     1  UNL1        0.0939
      8 C         144.1084  143.9072  164.1466 C.3     1  UNL1        0.0256
      9 C         143.5566  144.1874  162.7802 C.3     1  UNL1        0.0079
     10 C         142.7535  143.3894  163.7641 C.3     1  UNL1        0.0397
     11 C         142.1968  142.6373  164.9365 C.3     1  UNL1        0.0976
     12 C         141.5748  143.1696  162.8628 C.ar    1  UNL1       -0.0104
     13 C         141.5931  142.0510  161.8637 C.ar    1  UNL1       -0.0011
     14 C         140.4143  141.8311  160.9623 C.ar    1  UNL1        0.0294
     15 C         139.2174  142.7299  161.0601 C.ar    1  UNL1        0.1410
     16 F         138.0387  142.5101  160.1588 F       1  UNL1       -0.2041
     17 C         139.1992  143.8486  162.0594 C.ar    1  UNL1        0.0407
     18 C         140.3779  144.0684  162.9607 C.ar    1  UNL1        0.0560
     19 CL        140.3597  145.1870  163.9598 Cl      1  UNL1       -0.0825
     20 C         141.4926  140.0049  166.7484 C.ar    1  UNL1        0.0871
     21 C         140.0140  140.2118  166.6041 C.ar    1  UNL1        0.0240
     22 C         139.2326  139.3833  165.6279 C.ar    1  UNL1        0.0592
     23 C         139.9297  138.3479  164.7961 C.ar    1  UNL1        0.2251
     24 N         141.4083  138.1409  164.9405 N.ar    1  UNL1       -0.2086
     25 C         142.1898  138.9695  165.9167 C.ar    1  UNL1        0.1196
     26 O         139.1482  137.5193  163.8200 O.3     1  UNL1       -0.4561
     27 C         139.1740  137.8586  162.3590 C.3     1  UNL1        0.2542
     28 C         141.7765  139.4384  169.9497 C.3     1  UNL1        0.2079
     29 C         139.5652  140.7868  170.1532 C.3     1  UNL1        0.1747
     30 O         140.3352  139.5160  170.3578 O.3     1  UNL1       -0.3430
@<TRIPOS>BOND
     1    29    30    1
     2    30    28    1
     3    28     1    1
     4     1     2   ar
     5     2     3   ar
     6     3     4   ar
     7     4     6    1
     8     6     7    1
     9     8     7    1
    10     8     9    1
    11     9    10    1
    12    10    12    1
    13    12    13   ar
    14    13    14   ar
    15    14    15   ar
    16    15    16    1
    17    15    17   ar
    18    17    18   ar
    19    18    19    1
    20    10    11    1
    21     4     5   ar
    22     5    20    1
    23    20    21   ar
    24    21    22   ar
    25    22    23   ar
    26    23    26    1
    27    26    27    1
    28    23    24   ar
    29    24    25   ar
    30     5     1   ar
    31    25    20   ar
    32    11     6    1
    33    10     8    1
    34    18    12   ar
@<TRIPOS>MOLECULE
*****
 30 34 0 0 0
SMALL
GASTEIGER

@<TRIPOS>ATOM
      1 C         140.2728  141.3082  169.5678 C.ar    1  UNL1        0.1783
      2 N         140.1083  142.6683  170.1786 N.ar    1  UNL1       -0.1291
      3 N         140.0282  143.6699  169.0650 N.ar    1  UNL1       -0.1126
      4 C         140.1431  142.9289  167.7659 C.ar    1  UNL1        0.2255
      5 N         140.2942  141.4693  168.0767 N.ar    1  UNL1       -0.2620
      6 N         140.1122  143.5402  166.3965 N.pl3   1  UNL1       -0.2777
      7 C         139.0531  144.4599  165.8651 C.3     1  UNL1        0.0939
      8 C         139.4214  144.8272  164.4582 C.3     1  UNL1        0.0256
      9 C         140.0381  145.0103  163.1031 C.3     1  UNL1        0.0079
     10 C         140.7082  144.1346  164.1200 C.3     1  UNL1        0.0397
     11 C         141.1351  143.3391  165.3179 C.3     1  UNL1        0.0976
     12 C         141.8712  143.7504  163.2541 C.ar    1  UNL1       -0.0104
     13 C         143.1452  144.5397  163.3158 C.ar    1  UNL1       -0.0011
     14 C         144.3083  144.1556  162.4499 C.ar    1  UNL1        0.0294
     15 C         144.1972  142.9821  161.5222 C.ar    1  UNL1        0.1410
     16 F         145.3602  142.5979  160.6563 F       1  UNL1       -0.2041
     17 C         142.9231  142.1927  161.4605 C.ar    1  UNL1        0.0407
     18 C         141.7602  142.5769  162.3264 C.ar    1  UNL1        0.0560
     19 CL        140.4861  141.7875  162.2646 Cl      1  UNL1       -0.0825
     20 C         140.4411  140.3647  167.0726 C.ar    1  UNL1        0.0871
     21 C         139.2278  139.8027  166.3929 C.ar    1  UNL1        0.0240
     22 C         139.3747  138.6981  165.3887 C.ar    1  UNL1        0.0592
     23 C         140.7350  138.1555  165.0643 C.ar    1  UNL1        0.2251
     24 N         141.9483  138.7175  165.7440 N.ar    1  UNL1       -0.2086
     25 C         141.8013  139.8221  166.7481 C.ar    1  UNL1        0.1196
     26 O         140.8819  137.0509  164.0602 O.3     1  UNL1       -0.4561
     27 C         141.0591  137.3773  162.6068 C.3     1  UNL1        0.2542
     28 C         140.3944  140.0142  170.3168 C.3     1  UNL1        0.2079
     29 C         142.9876  139.9782  170.4691 C.3     1  UNL1        0.1747
     30 O         141.6866  139.2528  170.2936 O.3     1  UNL1       -0.3430
@<TRIPOS>BOND
     1    29    30    1
     2    30    28    1
     3    28     1    1
     4     1     2   ar
     5     2     3   ar
     6     3     4   ar
     7     4     6    1
     8     6     7    1
     9     8     7    1
    10     8     9    1
    11     9    10    1
    12    10    12    1
    13    12    13   ar
    14    13    14   ar
    15    14    15   ar
    16    15    16    1
    17    15    17   ar
    18    17    18   ar
    19    18    19    1
    20    10    11    1
    21     4     5   ar
    22     5    20    1
    23    20    21   ar
    24    21    22   ar
    25    22    23   ar
    26    23    26    1
    27    26    27    1
    28    23    24   ar
    29    24    25   ar
    30     5     1   ar
    31    25    20   ar
    32    11     6    1
    33    10     8    1
    34    18    12   ar
@<TRIPOS>MOLECULE
*****
 30 34 0 0 0
SMALL
GASTEIGER

@<TRIPOS>ATOM
      1 C         138.5556  140.1765  158.6220 C.ar    1  UNL1        0.1783
      2 N         139.2276  138.9977  157.9825 N.ar    1  UNL1       -0.1291
      3 N         140.1531  138.3875  158.9928 N.ar    1  UNL1       -0.1126
      4 C         140.0532  139.1890  160.2567 C.ar    1  UNL1        0.2255
      5 N         139.0659  140.2947  160.0275 N.ar    1  UNL1       -0.2620
      6 N         140.8081  138.9304  161.5268 N.pl3   1  UNL1       -0.2777
      7 C         140.8999  137.6173  162.2461 C.3     1  UNL1        0.0939
      8 C         141.7523  137.8147  163.4645 C.3     1  UNL1        0.0256
      9 C         142.6236  138.3082  164.5813 C.3     1  UNL1        0.0079
     10 C         142.1874  139.2498  163.4982 C.3     1  UNL1        0.0397
     11 C         141.6039  139.9393  162.3006 C.3     1  UNL1        0.0976
     12 C         142.8919  140.4556  164.0456 C.ar    1  UNL1       -0.0104
     13 C         144.3238  140.7166  163.6828 C.ar    1  UNL1       -0.0011
     14 C         145.0284  141.9225  164.2302 C.ar    1  UNL1        0.0294
     15 C         144.3010  142.8673  165.1403 C.ar    1  UNL1        0.1410
     16 F         145.0056  144.0731  165.6877 F       1  UNL1       -0.2041
     17 C         142.8691  142.6062  165.5031 C.ar    1  UNL1        0.0407
     18 C         142.1646  141.4004  164.9557 C.ar    1  UNL1        0.0560
     19 CL        140.7327  141.1394  165.3185 Cl      1  UNL1       -0.0825
     20 C         138.6601  141.3359  161.0282 C.ar    1  UNL1        0.0871
     21 C         137.8398  140.9486  162.2228 C.ar    1  UNL1        0.0240
     22 C         137.4340  141.9898  163.2234 C.ar    1  UNL1        0.0592
     23 C         137.8487  143.4183  163.0295 C.ar    1  UNL1        0.2251
     24 N         138.6690  143.8055  161.8349 N.ar    1  UNL1       -0.2086
     25 C         139.0748  142.7643  160.8343 C.ar    1  UNL1        0.1196
     26 O         137.4430  144.4595  164.0302 O.3     1  UNL1       -0.4561
     27 C         138.3496  144.7892  165.1788 C.3     1  UNL1        0.2542
     28 C         137.5499  141.0787  157.9702 C.3     1  UNL1        0.2079
     29 C         136.3555  140.7310  155.6894 C.3     1  UNL1        0.1747
     30 O         136.4253  140.4930  157.1687 O.3     1  UNL1       -0.3430
@<TRIPOS>BOND
     1    29    30    1
     2    30    28    1
     3    28     1    1
     4     1     2   ar
     5     2     3   ar
     6     3     4   ar
     7     4     6    1
     8     6     7    1
     9     8     7    1
    10     8     9    1
    11     9    10    1
    12    10    12    1
    13    12    13   ar
    14    13    14   ar
    15    14    15   ar
    16    15    16    1
    17    15    17   ar
    18    17    18   ar
    19    18    19    1
    20    10    11    1
    21     4     5   ar
    22     5    20    1
    23    20    21   ar
    24    21    22   ar
    25    22    23   ar
    26    23    26    1
    27    26    27    1
    28    23    24   ar
    29    24    25   ar
    30     5     1   ar
    31    25    20   ar
    32    11     6    1
    33    10     8    1
    34    18    12   ar
@<TRIPOS>MOLECULE
*****
 30 34 0 0 0
SMALL
GASTEIGER

@<TRIPOS>ATOM
      1 C         140.0245  140.3576  168.9224 C.ar    1  UNL1        0.1783
      2 N         138.7461  139.6364  169.2314 N.ar    1  UNL1       -0.1291
      3 N         138.2260  139.0470  167.9540 N.ar    1  UNL1       -0.1126
      4 C         139.1829  139.4038  166.8554 C.ar    1  UNL1        0.2255
      5 N         140.2945  140.2138  167.4540 N.ar    1  UNL1       -0.2620
      6 N         139.0514  139.0182  165.4118 N.pl3   1  UNL1       -0.2777
      7 C         138.7963  137.6360  164.8880 C.3     1  UNL1        0.0939
      8 C         138.7391  137.7108  163.3910 C.3     1  UNL1        0.0256
      9 C         138.7351  138.0911  161.9401 C.3     1  UNL1        0.0079
     10 C         138.9589  139.1392  162.9895 C.3     1  UNL1        0.0397
     11 C         139.1519  139.9473  164.2384 C.3     1  UNL1        0.0976
     12 C         139.1062  140.2873  162.0355 C.ar    1  UNL1       -0.0104
     13 C         137.9021  141.0845  161.6297 C.ar    1  UNL1       -0.0011
     14 C         138.0494  142.2327  160.6757 C.ar    1  UNL1        0.0294
     15 C         139.4008  142.5837  160.1276 C.ar    1  UNL1        0.1410
     16 F         139.5482  143.7318  159.1736 F       1  UNL1       -0.2041
     17 C         140.6050  141.7865  160.5334 C.ar    1  UNL1        0.0407
     18 C         140.4577  140.6384  161.4874 C.ar    1  UNL1        0.0560
     19 CL        141.6618  139.8412  161.8932 Cl      1  UNL1       -0.0825
     20 C         141.4697  140.7805  166.7139 C.ar    1  UNL1        0.0871
     21 C         141.5645  142.2584  166.4758 C.ar    1  UNL1        0.0240
     22 C         142.7398  142.8251  165.7357 C.ar    1  UNL1        0.0592
     23 C         143.8202  141.9137  165.2337 C.ar    1  UNL1        0.2251
     24 N         143.7255  140.4358  165.4717 N.ar    1  UNL1       -0.2086
     25 C         142.5502  139.8692  166.2118 C.ar    1  UNL1        0.1196
     26 O         144.9955  142.4804  164.4936 O.3     1  UNL1       -0.4561
     27 C         145.8714  141.5791  163.6746 C.3     1  UNL1        0.2542
     28 C         140.8824  141.0934  169.9087 C.3     1  UNL1        0.2079
     29 C         140.4669  143.6556  169.7987 C.3     1  UNL1        0.1747
     30 O         140.3807  142.3565  170.5435 O.3     1  UNL1       -0.3430
@<TRIPOS>BOND
     1    29    30    1
     2    30    28    1
     3    28     1    1
     4     1     2   ar
     5     2     3   ar
     6     3     4   ar
     7     4     6    1
     8     6     7    1
     9     8     7    1
    10     8     9    1
    11     9    10    1
    12    10    12    1
    13    12    13   ar
    14    13    14   ar
    15    14    15   ar
    16    15    16    1
    17    15    17   ar
    18    17    18   ar
    19    18    19    1
    20    10    11    1
    21     4     5   ar
    22     5    20    1
    23    20    21   ar
    24    21    22   ar
    25    22    23   ar
    26    23    26    1
    27    26    27    1
    28    23    24   ar
    29    24    25   ar
    30     5     1   ar
    31    25    20   ar
    32    11     6    1
    33    10     8    1
    34    18    12   ar
