@<TRIPOS>MOLECULE
*****
 29 33 0 0 0
SMALL
GASTEIGER

@<TRIPOS>ATOM
      1 N         143.0378  143.9162  164.5225 N.3     1  UNL1       -0.2695
      2 C         141.5470  144.0788  164.4875 C.3     1  UNL1        0.0938
      3 C         140.6828  143.2727  165.4111 C.3     1  UNL1        0.1081
      4 N         141.3092  142.3039  166.3698 N.pl3   1  UNL1       -0.3046
      5 C         142.8000  142.1413  166.4048 C.3     1  UNL1        0.1081
      6 C         143.6643  142.9474  165.4811 C.3     1  UNL1        0.0938
      7 C         140.4450  141.4978  167.2934 C.ar    1  UNL1        0.0484
      8 C         140.4473  141.7863  168.7654 C.ar    1  UNL1        0.0146
      9 C         139.5830  140.9801  169.6891 C.ar    1  UNL1        0.0018
     10 C         138.7164  139.8854  169.1407 C.ar    1  UNL1        0.0066
     11 C         138.7141  139.5969  167.6687 C.ar    1  UNL1        0.0307
     12 S         137.9699  138.5883  166.8448 S.2     1  UNL1       -0.0864
     13 C         138.3742  138.7711  165.4119 C.ar    1  UNL1        0.0355
     14 C         139.3683  139.8927  165.3503 C.ar    1  UNL1        0.0087
     15 C         139.5783  140.4031  166.7451 C.ar    1  UNL1        0.0198
     16 C         143.9021  144.7223  163.5988 C.3     1  UNL1        0.0771
     17 C         144.3644  144.1331  162.2992 C.3     1  UNL1        0.0497
     18 C         141.7989  144.3129  160.7546 C.3     1  UNL1        0.0520
     19 C         142.4365  142.9768  160.9968 C.ar    1  UNL1        0.0613
     20 N         141.7914  141.7308  160.4666 N.ar    1  UNL1       -0.2368
     21 C         142.4290  140.3948  160.7087 C.ar    1  UNL1        0.1220
     22 N         143.7117  140.3049  161.4810 N.ar    1  UNL1       -0.2843
     23 C         144.3569  141.5510  162.0112 C.ar    1  UNL1        0.2588
     24 O         145.6396  141.4611  162.7835 O.2     1  UNL1       -0.2673
     25 C         143.7193  142.8869  161.7691 C.ar    1  UNL1        0.0489
     26 C         144.3493  138.9689  161.7232 C.3     1  UNL1        0.1102
     27 C         143.7042  137.7229  161.1930 C.3     1  UNL1        0.0251
     28 C         142.4214  137.8128  160.4207 C.3     1  UNL1        0.0099
     29 C         141.7838  139.1487  160.1786 C.3     1  UNL1        0.0641
@<TRIPOS>BOND
     1    18    19    1
     2    19    20   ar
     3    20    21   ar
     4    21    22   ar
     5    22    23   ar
     6    23    24    2
     7    23    25   ar
     8    25    17    1
     9    17    16    1
    10    16     1    1
    11     1     2    1
    12     2     3    1
    13     3     4    1
    14     4     7    1
    15     7     8   ar
    16     8     9   ar
    17     9    10   ar
    18    10    11   ar
    19    11    12   ar
    20    12    13   ar
    21    13    14   ar
    22    14    15   ar
    23     4     5    1
    24     5     6    1
    25    22    26    1
    26    26    27    1
    27    27    28    1
    28    28    29    1
    29    25    19   ar
    30     6     1    1
    31    29    21    1
    32    15     7   ar
    33    15    11   ar
@<TRIPOS>MOLECULE
*****
 29 33 0 0 0
SMALL
GASTEIGER

@<TRIPOS>ATOM
      1 N         140.8323  144.5562  163.7677 N.3     1  UNL1       -0.2695
      2 C         139.7177  144.1775  164.6974 C.3     1  UNL1        0.0938
      3 C         139.9819  143.2502  165.8465 C.3     1  UNL1        0.1081
      4 N         141.3606  142.7016  166.0658 N.pl3   1  UNL1       -0.3046
      5 C         142.4752  143.0802  165.1362 C.3     1  UNL1        0.1081
      6 C         142.2111  144.0076  163.9871 C.3     1  UNL1        0.0938
      7 C         141.6248  141.7743  167.2148 C.ar    1  UNL1        0.0484
      8 C         142.3836  140.4999  166.9910 C.ar    1  UNL1        0.0146
      9 C         142.6478  139.5726  168.1401 C.ar    1  UNL1        0.0018
     10 C         142.1531  139.9197  169.5130 C.ar    1  UNL1        0.0066
     11 C         141.3942  141.1941  169.7368 C.ar    1  UNL1        0.0307
     12 S         140.7876  141.7978  170.9686 S.2     1  UNL1       -0.0864
     13 C         140.1485  143.0983  170.5809 C.ar    1  UNL1        0.0355
     14 C         140.3602  143.2982  169.1094 C.ar    1  UNL1        0.0087
     15 C         141.1301  142.1213  168.5878 C.ar    1  UNL1        0.0198
     16 C         140.5682  145.4835  162.6187 C.3     1  UNL1        0.0771
     17 C         140.1948  144.9273  161.2766 C.3     1  UNL1        0.0497
     18 C         142.6226  143.5510  160.1758 C.3     1  UNL1        0.0520
     19 C         141.3948  142.7553  160.5068 C.ar    1  UNL1        0.0613
     20 N         141.3810  141.2715  160.2873 N.ar    1  UNL1       -0.2368
     21 C         140.1532  140.4758  160.6183 C.ar    1  UNL1        0.1220
     22 N         138.9393  141.1639  161.1687 N.ar    1  UNL1       -0.2843
     23 C         138.9532  142.6478  161.3882 C.ar    1  UNL1        0.2588
     24 O         137.7393  143.3359  161.9386 O.2     1  UNL1       -0.2673
     25 C         140.1809  143.4434  161.0572 C.ar    1  UNL1        0.0489
     26 C         137.7116  140.3683  161.4997 C.3     1  UNL1        0.1102
     27 C         137.6977  138.8845  161.2803 C.3     1  UNL1        0.0251
     28 C         138.9116  138.1964  160.7299 C.3     1  UNL1        0.0099
     29 C         140.1393  138.9920  160.3989 C.3     1  UNL1        0.0641
@<TRIPOS>BOND
     1    18    19    1
     2    19    20   ar
     3    20    21   ar
     4    21    22   ar
     5    22    23   ar
     6    23    24    2
     7    23    25   ar
     8    25    17    1
     9    17    16    1
    10    16     1    1
    11     1     2    1
    12     2     3    1
    13     3     4    1
    14     4     7    1
    15     7     8   ar
    16     8     9   ar
    17     9    10   ar
    18    10    11   ar
    19    11    12   ar
    20    12    13   ar
    21    13    14   ar
    22    14    15   ar
    23     4     5    1
    24     5     6    1
    25    22    26    1
    26    26    27    1
    27    27    28    1
    28    28    29    1
    29    25    19   ar
    30     6     1    1
    31    29    21    1
    32    15     7   ar
    33    15    11   ar
@<TRIPOS>MOLECULE
*****
 29 33 0 0 0
SMALL
GASTEIGER

@<TRIPOS>ATOM
      1 N         139.7757  138.4891  163.3300 N.3     1  UNL1       -0.2695
      2 C         140.9186  138.1256  164.2310 C.3     1  UNL1        0.0938
      3 C         140.9763  138.6718  165.6268 C.3     1  UNL1        0.1081
      4 N         139.8911  139.5815  166.1216 N.pl3   1  UNL1       -0.3046
      5 C         138.7483  139.9450  165.2207 C.3     1  UNL1        0.1081
      6 C         138.6906  139.3988  163.8248 C.3     1  UNL1        0.0938
      7 C         139.9488  140.1277  167.5174 C.ar    1  UNL1        0.0484
      8 C         138.8609  139.7998  168.4967 C.ar    1  UNL1        0.0146
      9 C         138.9186  140.3461  169.8925 C.ar    1  UNL1        0.0018
     10 C         140.0642  141.2201  170.3091 C.ar    1  UNL1        0.0066
     11 C         141.1522  141.5479  169.3298 C.ar    1  UNL1        0.0307
     12 S         142.3964  142.3767  169.4522 S.2     1  UNL1       -0.0864
     13 C         143.1077  142.3427  168.1320 C.ar    1  UNL1        0.0355
     14 C         142.3030  141.4929  167.1937 C.ar    1  UNL1        0.0087
     15 C         141.0945  141.0017  167.9340 C.ar    1  UNL1        0.0198
     16 C         139.7180  137.9429  161.9342 C.3     1  UNL1        0.0771
     17 C         140.5310  138.5788  160.8458 C.3     1  UNL1        0.0497
     18 C         143.4022  137.7282  161.0271 C.3     1  UNL1        0.0520
     19 C         143.0261  139.1580  161.2811 C.ar    1  UNL1        0.0613
     20 N         144.0855  140.1623  161.6257 N.ar    1  UNL1       -0.2368
     21 C         143.7094  141.5921  161.8796 C.ar    1  UNL1        0.1220
     22 N         142.2738  142.0174  161.7889 N.ar    1  UNL1       -0.2843
     23 C         141.2143  141.0129  161.4443 C.ar    1  UNL1        0.2588
     24 O         139.7787  141.4382  161.3536 O.2     1  UNL1       -0.2673
     25 C         141.5905  139.5833  161.1904 C.ar    1  UNL1        0.0489
     26 C         141.8976  143.4471  162.0428 C.3     1  UNL1        0.1102
     27 C         142.9571  144.4514  162.3874 C.3     1  UNL1        0.0251
     28 C         144.3926  144.0261  162.4781 C.3     1  UNL1        0.0099
     29 C         144.7688  142.5965  162.2242 C.3     1  UNL1        0.0641
@<TRIPOS>BOND
     1    18    19    1
     2    19    20   ar
     3    20    21   ar
     4    21    22   ar
     5    22    23   ar
     6    23    24    2
     7    23    25   ar
     8    25    17    1
     9    17    16    1
    10    16     1    1
    11     1     2    1
    12     2     3    1
    13     3     4    1
    14     4     7    1
    15     7     8   ar
    16     8     9   ar
    17     9    10   ar
    18    10    11   ar
    19    11    12   ar
    20    12    13   ar
    21    13    14   ar
    22    14    15   ar
    23     4     5    1
    24     5     6    1
    25    22    26    1
    26    26    27    1
    27    27    28    1
    28    28    29    1
    29    25    19   ar
    30     6     1    1
    31    29    21    1
    32    15     7   ar
    33    15    11   ar
@<TRIPOS>MOLECULE
*****
 29 33 0 0 0
SMALL
GASTEIGER

@<TRIPOS>ATOM
      1 N         141.5324  138.2295  163.9144 N.3     1  UNL1       -0.2695
      2 C         140.3351  138.3000  164.8153 C.3     1  UNL1        0.0938
      3 C         140.4679  138.8713  166.1959 C.3     1  UNL1        0.1081
      4 N         141.7980  139.3721  166.6755 N.pl3   1  UNL1       -0.3046
      5 C         142.9952  139.3017  165.7747 C.3     1  UNL1        0.1081
      6 C         142.8624  138.7304  164.3940 C.3     1  UNL1        0.0938
      7 C         141.9308  139.9434  168.0561 C.ar    1  UNL1        0.0484
      8 C         142.6626  139.1770  169.1177 C.ar    1  UNL1        0.0146
      9 C         142.7954  139.7483  170.4983 C.ar    1  UNL1        0.0018
     10 C         142.1964  141.0860  170.8172 C.ar    1  UNL1        0.0066
     11 C         141.4646  141.8524  169.7556 C.ar    1  UNL1        0.0307
     12 S         140.7748  143.1843  169.7744 S.2     1  UNL1       -0.0864
     13 C         140.2157  143.4361  168.4055 C.ar    1  UNL1        0.0355
     14 C         140.5599  142.2598  167.5406 C.ar    1  UNL1        0.0087
     15 C         141.3317  141.2811  168.3751 C.ar    1  UNL1        0.0198
     16 C         141.3996  137.6582  162.5338 C.3     1  UNL1        0.0771
     17 C         140.8429  138.5001  161.4242 C.3     1  UNL1        0.0497
     18 C         137.8585  138.4270  161.7214 C.3     1  UNL1        0.0520
     19 C         138.5976  139.7213  161.8909 C.ar    1  UNL1        0.0613
     20 N         137.8446  140.9789  162.2091 N.ar    1  UNL1       -0.2368
     21 C         138.5837  142.2732  162.3786 C.ar    1  UNL1        0.1220
     22 N         140.0759  142.3097  162.2299 N.ar    1  UNL1       -0.2843
     23 C         140.8290  141.0520  161.9118 C.ar    1  UNL1        0.2588
     24 O         142.3211  141.0885  161.7632 O.2     1  UNL1       -0.2673
     25 C         140.0898  139.7578  161.7423 C.ar    1  UNL1        0.0489
     26 C         140.8151  143.6039  162.3994 C.3     1  UNL1        0.1102
     27 C         140.0620  144.8615  162.7175 C.3     1  UNL1        0.0251
     28 C         138.5698  144.8250  162.8662 C.3     1  UNL1        0.0099
     29 C         137.8307  143.5308  162.6967 C.3     1  UNL1        0.0641
@<TRIPOS>BOND
     1    18    19    1
     2    19    20   ar
     3    20    21   ar
     4    21    22   ar
     5    22    23   ar
     6    23    24    2
     7    23    25   ar
     8    25    17    1
     9    17    16    1
    10    16     1    1
    11     1     2    1
    12     2     3    1
    13     3     4    1
    14     4     7    1
    15     7     8   ar
    16     8     9   ar
    17     9    10   ar
    18    10    11   ar
    19    11    12   ar
    20    12    13   ar
    21    13    14   ar
    22    14    15   ar
    23     4     5    1
    24     5     6    1
    25    22    26    1
    26    26    27    1
    27    27    28    1
    28    28    29    1
    29    25    19   ar
    30     6     1    1
    31    29    21    1
    32    15     7   ar
    33    15    11   ar
@<TRIPOS>MOLECULE
*****
 29 33 0 0 0
SMALL
GASTEIGER

@<TRIPOS>ATOM
      1 N         138.5028  138.8741  163.2405 N.3     1  UNL1       -0.2695
      2 C         138.1145  140.2416  163.7195 C.3     1  UNL1        0.0938
      3 C         138.5011  140.6914  165.0972 C.3     1  UNL1        0.1081
      4 N         139.2759  139.7738  165.9960 N.pl3   1  UNL1       -0.3046
      5 C         139.6642  138.4065  165.5170 C.3     1  UNL1        0.1081
      6 C         139.2776  137.9566  164.1392 C.3     1  UNL1        0.0938
      7 C         139.6624  140.2237  167.3737 C.ar    1  UNL1        0.0484
      8 C         138.7890  139.8861  168.5456 C.ar    1  UNL1        0.0146
      9 C         139.1756  140.3360  169.9234 C.ar    1  UNL1        0.0018
     10 C         140.4355  141.1234  170.1293 C.ar    1  UNL1        0.0066
     11 C         141.3090  141.4609  168.9575 C.ar    1  UNL1        0.0307
     12 S         142.5998  142.2177  168.8528 S.2     1  UNL1       -0.0864
     13 C         143.0111  142.2355  167.4104 C.ar    1  UNL1        0.0355
     14 C         141.9744  141.4898  166.6236 C.ar    1  UNL1        0.0087
     15 C         140.9224  141.0111  167.5797 C.ar    1  UNL1        0.0198
     16 C         138.1163  138.4243  161.8627 C.3     1  UNL1        0.0771
     17 C         139.0179  138.7127  160.6992 C.3     1  UNL1        0.0497
     18 C         138.3911  141.5204  159.8485 C.3     1  UNL1        0.0520
     19 C         139.7519  141.1848  160.3832 C.ar    1  UNL1        0.0613
     20 N         140.7991  142.2531  160.4926 N.ar    1  UNL1       -0.2368
     21 C         142.1598  141.9175  161.0273 C.ar    1  UNL1        0.1220
     22 N         142.4732  140.5136  161.4527 N.ar    1  UNL1       -0.2843
     23 C         141.4259  139.4453  161.3433 C.ar    1  UNL1        0.2588
     24 O         141.7392  138.0414  161.7686 O.2     1  UNL1       -0.2673
     25 C         140.0652  139.7810  160.8086 C.ar    1  UNL1        0.0489
     26 C         143.8339  140.1780  161.9874 C.3     1  UNL1        0.1102
     27 C         144.8811  141.2462  162.0968 C.3     1  UNL1        0.0251
     28 C         144.5677  142.6501  161.6714 C.3     1  UNL1        0.0099
     29 C         143.2071  142.9858  161.1367 C.3     1  UNL1        0.0641
@<TRIPOS>BOND
     1    18    19    1
     2    19    20   ar
     3    20    21   ar
     4    21    22   ar
     5    22    23   ar
     6    23    24    2
     7    23    25   ar
     8    25    17    1
     9    17    16    1
    10    16     1    1
    11     1     2    1
    12     2     3    1
    13     3     4    1
    14     4     7    1
    15     7     8   ar
    16     8     9   ar
    17     9    10   ar
    18    10    11   ar
    19    11    12   ar
    20    12    13   ar
    21    13    14   ar
    22    14    15   ar
    23     4     5    1
    24     5     6    1
    25    22    26    1
    26    26    27    1
    27    27    28    1
    28    28    29    1
    29    25    19   ar
    30     6     1    1
    31    29    21    1
    32    15     7   ar
    33    15    11   ar
@<TRIPOS>MOLECULE
*****
 29 33 0 0 0
SMALL
GASTEIGER

@<TRIPOS>ATOM
      1 N         140.7799  137.6847  162.8181 N.3     1  UNL1       -0.2695
      2 C         141.8517  138.0321  161.8279 C.3     1  UNL1        0.0938
      3 C         141.4806  138.4363  160.4319 C.3     1  UNL1        0.1081
      4 N         140.0376  138.4933  160.0261 N.pl3   1  UNL1       -0.3046
      5 C         138.9658  138.1459  161.0163 C.3     1  UNL1        0.1081
      6 C         139.3369  137.7416  162.4123 C.3     1  UNL1        0.0938
      7 C         139.6665  138.8976  158.6301 C.ar    1  UNL1        0.0484
      8 C         139.8449  137.9311  157.4969 C.ar    1  UNL1        0.0146
      9 C         139.4737  138.3355  156.1009 C.ar    1  UNL1        0.0018
     10 C         138.9242  139.7062  155.8381 C.ar    1  UNL1        0.0066
     11 C         138.7458  140.6726  156.9714 C.ar    1  UNL1        0.0307
     12 S         138.2314  142.0809  157.0179 S.2     1  UNL1       -0.0864
     13 C         138.2847  142.5469  158.4427 C.ar    1  UNL1        0.0355
     14 C         138.8320  141.4267  159.2767 C.ar    1  UNL1        0.0087
     15 C         139.1170  140.2684  158.3673 C.ar    1  UNL1        0.0198
     16 C         141.1510  137.2804  164.2141 C.3     1  UNL1        0.0771
     17 C         141.2915  138.3220  165.2842 C.3     1  UNL1        0.0497
     18 C         138.3847  138.5427  165.9929 C.3     1  UNL1        0.0520
     19 C         139.1307  139.7481  165.5021 C.ar    1  UNL1        0.0613
     20 N         138.4232  141.0637  165.3657 N.ar    1  UNL1       -0.2368
     21 C         139.1691  142.2690  164.8748 C.ar    1  UNL1        0.1220
     22 N         140.6225  142.1587  164.5205 N.ar    1  UNL1       -0.2843
     23 C         141.3299  140.8430  164.6570 C.ar    1  UNL1        0.2588
     24 O         142.7833  140.7326  164.3026 O.2     1  UNL1       -0.2673
     25 C         140.5840  139.6377  165.1478 C.ar    1  UNL1        0.0489
     26 C         141.3684  143.3639  164.0297 C.3     1  UNL1        0.1102
     27 C         140.6609  144.6795  163.8933 C.3     1  UNL1        0.0251
     28 C         139.2076  144.7899  164.2476 C.3     1  UNL1        0.0099
     29 C         138.4617  143.5846  164.7384 C.3     1  UNL1        0.0641
@<TRIPOS>BOND
     1    18    19    1
     2    19    20   ar
     3    20    21   ar
     4    21    22   ar
     5    22    23   ar
     6    23    24    2
     7    23    25   ar
     8    25    17    1
     9    17    16    1
    10    16     1    1
    11     1     2    1
    12     2     3    1
    13     3     4    1
    14     4     7    1
    15     7     8   ar
    16     8     9   ar
    17     9    10   ar
    18    10    11   ar
    19    11    12   ar
    20    12    13   ar
    21    13    14   ar
    22    14    15   ar
    23     4     5    1
    24     5     6    1
    25    22    26    1
    26    26    27    1
    27    27    28    1
    28    28    29    1
    29    25    19   ar
    30     6     1    1
    31    29    21    1
    32    15     7   ar
    33    15    11   ar
@<TRIPOS>MOLECULE
*****
 29 33 0 0 0
SMALL
GASTEIGER

@<TRIPOS>ATOM
      1 N         143.4346  143.9958  163.6423 N.3     1  UNL1       -0.2695
      2 C         144.0015  143.3848  162.3951 C.3     1  UNL1        0.0938
      3 C         143.2430  143.4750  161.1042 C.3     1  UNL1        0.1081
      4 N         141.9176  144.1761  161.0604 N.pl3   1  UNL1       -0.3046
      5 C         141.3508  144.7870  162.3075 C.3     1  UNL1        0.1081
      6 C         142.1093  144.6969  163.5985 C.3     1  UNL1        0.0938
      7 C         141.1591  144.2663  159.7695 C.ar    1  UNL1        0.0484
      8 C         141.4686  145.3617  158.7927 C.ar    1  UNL1        0.0146
      9 C         140.7101  145.4518  157.5017 C.ar    1  UNL1        0.0018
     10 C         139.6421  144.4465  157.1876 C.ar    1  UNL1        0.0066
     11 C         139.3326  143.3511  158.1644 C.ar    1  UNL1        0.0307
     12 S         138.3418  142.2254  158.1294 S.2     1  UNL1       -0.0864
     13 C         138.4880  141.4396  159.3986 C.ar    1  UNL1        0.0355
     14 C         139.5691  142.0796  160.2181 C.ar    1  UNL1        0.0087
     15 C         140.0911  143.2609  159.4553 C.ar    1  UNL1        0.0198
     16 C         144.1931  143.9056  164.9332 C.3     1  UNL1        0.0771
     17 C         143.9911  142.7288  165.8411 C.3     1  UNL1        0.0497
     18 C         145.0197  140.3823  164.2805 C.3     1  UNL1        0.0520
     19 C         143.5707  140.4523  164.6619 C.ar    1  UNL1        0.0613
     20 N         142.6360  139.3490  164.2630 N.ar    1  UNL1       -0.2368
     21 C         141.1870  139.4190  164.6445 C.ar    1  UNL1        0.1220
     22 N         140.6727  140.5923  165.4248 N.ar    1  UNL1       -0.2843
     23 C         141.6074  141.6956  165.8237 C.ar    1  UNL1        0.2588
     24 O         141.0931  142.8688  166.6040 O.2     1  UNL1       -0.2673
     25 C         143.0564  141.6255  165.4422 C.ar    1  UNL1        0.0489
     26 C         139.2237  140.6623  165.8062 C.3     1  UNL1        0.1102
     27 C         138.2890  139.5590  165.4073 C.3     1  UNL1        0.0251
     28 C         138.8033  138.3857  164.6270 C.3     1  UNL1        0.0099
     29 C         140.2523  138.3157  164.2456 C.3     1  UNL1        0.0641
@<TRIPOS>BOND
     1    18    19    1
     2    19    20   ar
     3    20    21   ar
     4    21    22   ar
     5    22    23   ar
     6    23    24    2
     7    23    25   ar
     8    25    17    1
     9    17    16    1
    10    16     1    1
    11     1     2    1
    12     2     3    1
    13     3     4    1
    14     4     7    1
    15     7     8   ar
    16     8     9   ar
    17     9    10   ar
    18    10    11   ar
    19    11    12   ar
    20    12    13   ar
    21    13    14   ar
    22    14    15   ar
    23     4     5    1
    24     5     6    1
    25    22    26    1
    26    26    27    1
    27    27    28    1
    28    28    29    1
    29    25    19   ar
    30     6     1    1
    31    29    21    1
    32    15     7   ar
    33    15    11   ar
@<TRIPOS>MOLECULE
*****
 29 33 0 0 0
SMALL
GASTEIGER

@<TRIPOS>ATOM
      1 N         144.3905  141.2698  163.9036 N.3     1  UNL1       -0.2695
      2 C         143.9737  140.0464  164.6651 C.3     1  UNL1        0.0938
      3 C         143.3516  140.1840  166.0230 C.3     1  UNL1        0.1081
      4 N         143.1464  141.5449  166.6196 N.pl3   1  UNL1       -0.3046
      5 C         143.5632  142.7682  165.8582 C.3     1  UNL1        0.1081
      6 C         144.1852  142.6306  164.5001 C.3     1  UNL1        0.0938
      7 C         142.5243  141.6825  167.9775 C.ar    1  UNL1        0.0484
      8 C         143.2300  142.4573  169.0507 C.ar    1  UNL1        0.0146
      9 C         142.6079  142.5949  170.4087 C.ar    1  UNL1        0.0018
     10 C         141.2802  141.9576  170.6935 C.ar    1  UNL1        0.0066
     11 C         140.5746  141.1828  169.6203 C.ar    1  UNL1        0.0307
     12 S         139.2658  140.4500  169.6071 S.2     1  UNL1       -0.0864
     13 C         139.0791  139.8595  168.2409 C.ar    1  UNL1        0.0355
     14 C         140.2724  140.2274  167.4098 C.ar    1  UNL1        0.0087
     15 C         141.1966  141.0452  168.2624 C.ar    1  UNL1        0.0198
     16 C         145.0125  141.1322  162.5456 C.3     1  UNL1        0.0771
     17 C         144.1415  141.0089  161.3307 C.3     1  UNL1        0.0497
     18 C         144.0945  138.0108  161.2343 C.3     1  UNL1        0.0520
     19 C         142.8118  138.7771  161.3674 C.ar    1  UNL1        0.0613
     20 N         141.5058  138.0443  161.4522 N.ar    1  UNL1       -0.2368
     21 C         140.2231  138.8106  161.5853 C.ar    1  UNL1        0.1220
     22 N         140.2466  140.3097  161.6335 N.ar    1  UNL1       -0.2843
     23 C         141.5527  141.0424  161.5487 C.ar    1  UNL1        0.2588
     24 O         141.5762  142.5414  161.5969 O.2     1  UNL1       -0.2673
     25 C         142.8353  140.2761  161.4156 C.ar    1  UNL1        0.0489
     26 C         138.9640  141.0760  161.7666 C.3     1  UNL1        0.1102
     27 C         137.6580  140.3432  161.8514 C.3     1  UNL1        0.0251
     28 C         137.6345  138.8442  161.8032 C.3     1  UNL1        0.0099
     29 C         138.9170  138.0779  161.6701 C.3     1  UNL1        0.0641
@<TRIPOS>BOND
     1    18    19    1
     2    19    20   ar
     3    20    21   ar
     4    21    22   ar
     5    22    23   ar
     6    23    24    2
     7    23    25   ar
     8    25    17    1
     9    17    16    1
    10    16     1    1
    11     1     2    1
    12     2     3    1
    13     3     4    1
    14     4     7    1
    15     7     8   ar
    16     8     9   ar
    17     9    10   ar
    18    10    11   ar
    19    11    12   ar
    20    12    13   ar
    21    13    14   ar
    22    14    15   ar
    23     4     5    1
    24     5     6    1
    25    22    26    1
    26    26    27    1
    27    27    28    1
    28    28    29    1
    29    25    19   ar
    30     6     1    1
    31    29    21    1
    32    15     7   ar
    33    15    11   ar
@<TRIPOS>MOLECULE
*****
 29 33 0 0 0
SMALL
GASTEIGER

@<TRIPOS>ATOM
      1 N         144.5807  140.0199  163.1135 N.3     1  UNL1       -0.2695
      2 C         145.0377  141.4326  162.9000 C.3     1  UNL1        0.0938
      3 C         144.7705  142.1179  161.5928 C.3     1  UNL1        0.1081
      4 N         144.0463  141.3905  160.4989 N.pl3   1  UNL1       -0.3046
      5 C         143.5892  139.9779  160.7123 C.3     1  UNL1        0.1081
      6 C         143.8564  139.2926  162.0196 C.3     1  UNL1        0.0938
      7 C         143.7790  142.0758  159.1917 C.ar    1  UNL1        0.0484
      8 C         144.4531  141.5947  157.9411 C.ar    1  UNL1        0.0146
      9 C         144.1859  142.2800  156.6338 C.ar    1  UNL1        0.0018
     10 C         143.2446  143.4465  156.5772 C.ar    1  UNL1        0.0066
     11 C         142.5705  143.9277  157.8278 C.ar    1  UNL1        0.0307
     12 S         141.6009  145.0442  158.0795 S.2     1  UNL1       -0.0864
     13 C         141.2689  145.0489  159.5422 C.ar    1  UNL1        0.0355
     14 C         142.0333  143.9353  160.1946 C.ar    1  UNL1        0.0087
     15 C         142.8377  143.2424  159.1350 C.ar    1  UNL1        0.0198
     16 C         144.8479  139.3346  164.4207 C.3     1  UNL1        0.0771
     17 C         143.7509  139.1999  165.4348 C.3     1  UNL1        0.0497
     18 C         141.4938  137.5000  164.4270 C.3     1  UNL1        0.0520
     19 C         141.2794  138.9648  164.6692 C.ar    1  UNL1        0.0613
     20 N         139.9364  139.5795  164.4076 N.ar    1  UNL1       -0.2368
     21 C         139.7220  141.0443  164.6498 C.ar    1  UNL1        0.1220
     22 N         140.8506  141.8942  165.1538 N.ar    1  UNL1       -0.2843
     23 C         142.1936  141.2794  165.4154 C.ar    1  UNL1        0.2588
     24 O         143.3221  142.1293  165.9194 O.2     1  UNL1       -0.2673
     25 C         142.4079  139.8147  165.1732 C.ar    1  UNL1        0.0489
     26 C         140.6362  143.3589  165.3961 C.3     1  UNL1        0.1102
     27 C         139.2932  143.9736  165.1344 C.3     1  UNL1        0.0251
     28 C         138.1646  143.1237  164.6305 C.3     1  UNL1        0.0099
     29 C         138.3790  141.6590  164.3882 C.3     1  UNL1        0.0641
@<TRIPOS>BOND
     1    18    19    1
     2    19    20   ar
     3    20    21   ar
     4    21    22   ar
     5    22    23   ar
     6    23    24    2
     7    23    25   ar
     8    25    17    1
     9    17    16    1
    10    16     1    1
    11     1     2    1
    12     2     3    1
    13     3     4    1
    14     4     7    1
    15     7     8   ar
    16     8     9   ar
    17     9    10   ar
    18    10    11   ar
    19    11    12   ar
    20    12    13   ar
    21    13    14   ar
    22    14    15   ar
    23     4     5    1
    24     5     6    1
    25    22    26    1
    26    26    27    1
    27    27    28    1
    28    28    29    1
    29    25    19   ar
    30     6     1    1
    31    29    21    1
    32    15     7   ar
    33    15    11   ar
