@<TRIPOS>MOLECULE
*****
 32 36 0 0 0
SMALL
GASTEIGER

@<TRIPOS>ATOM
      1 N         138.9122  139.6490  162.1735 N.ar    1  UNL1       -0.2290
      2 N         138.7871  138.1558  162.1037 N.ar    1  UNL1       -0.1635
      3 C         138.8863  137.6167  163.4999 C.ar    1  UNL1        0.1220
      4 C         139.0726  138.7766  164.4326 C.ar    1  UNL1        0.0400
      5 C         139.2298  138.8513  165.9225 C.ar    1  UNL1        0.0219
      6 C         139.4029  140.1822  166.5926 C.ar    1  UNL1        0.0980
      7 C         139.4190  141.4382  165.7728 C.ar    1  UNL1        0.1567
      8 F         139.5921  142.7690  166.4428 F       1  UNL1       -0.2027
      9 C         139.2618  141.3634  164.2828 C.ar    1  UNL1        0.0502
     10 C         139.0886  140.0326  163.6128 C.ar    1  UNL1        0.0866
     11 C         139.2537  142.5182  159.5820 C.ar    1  UNL1        0.0864
     12 C         139.5748  141.9129  160.9163 C.ar    1  UNL1        0.0308
     13 C         138.8685  140.5928  161.0084 C.ar    1  UNL1        0.0899
     14 C         138.1109  140.3822  159.7311 C.ar    1  UNL1        0.0547
     15 S         138.3489  141.5723  158.8494 S.2     1  UNL1       -0.0802
     16 C         139.7501  143.8378  159.0700 C.2     1  UNL1        0.2751
     17 O         140.1816  143.9732  157.6397 O.2     1  UNL1       -0.2675
     18 N         139.8151  145.0222  159.9882 N.am    1  UNL1       -0.1735
     19 C         144.1069  144.2888  162.9754 C.3     1  UNL1        0.1306
     20 N         142.7283  144.6775  162.5297 N.ar    1  UNL1       -0.3218
     21 C         141.6777  145.3281  163.3798 C.ar    1  UNL1        0.0774
     22 C         140.4584  145.5365  162.5312 C.ar    1  UNL1        0.0368
     23 C         140.7557  145.0146  161.1567 C.ar    1  UNL1        0.0924
     24 C         142.1586  144.4837  161.1558 C.ar    1  UNL1        0.0928
     25 N         139.5601  140.2569  168.0824 N.pl3   1  UNL1       -0.2094
     26 C         140.6426  141.1055  168.6807 C.ar    1  UNL1        0.0811
     27 C         140.2896  142.3709  169.4047 C.ar    1  UNL1        0.0174
     28 C         141.3722  143.2196  170.0030 C.ar    1  UNL1        0.0014
     29 C         142.8076  142.8028  169.8773 C.ar    1  UNL1        0.0010
     30 C         143.1606  141.5374  169.1533 C.ar    1  UNL1        0.0127
     31 C         142.0781  140.6888  168.5550 C.ar    1  UNL1        0.0729
     32 CL        142.4310  139.4234  167.8310 Cl      1  UNL1       -0.0809
@<TRIPOS>BOND
     1    19    20    1
     2    20    21   ar
     3    21    22   ar
     4    22    23   ar
     5    23    18    1
     6    18    16   am
     7    16    17    2
     8    16    11    1
     9    11    12   ar
    10    12    13   ar
    11    13     1    1
    12     1     2   ar
    13     2     3   ar
    14     3     4   ar
    15     4     5   ar
    16     5     6   ar
    17     6    25    1
    18    25    26    1
    19    26    27   ar
    20    27    28   ar
    21    28    29   ar
    22    29    30   ar
    23    30    31   ar
    24    31    32    1
    25     6     7   ar
    26     7     8    1
    27     7     9   ar
    28     9    10   ar
    29    13    14   ar
    30    14    15   ar
    31    23    24   ar
    32    24    20   ar
    33    15    11   ar
    34    10     1   ar
    35    10     4   ar
    36    31    26   ar
@<TRIPOS>MOLECULE
*****
 32 36 0 0 0
SMALL
GASTEIGER

@<TRIPOS>ATOM
      1 N         139.2251  139.1629  159.1490 N.ar    1  UNL1       -0.2290
      2 N         137.9332  139.9219  159.0779 N.ar    1  UNL1       -0.1635
      3 C         137.3333  139.9454  160.4525 C.ar    1  UNL1        0.1220
      4 C         138.2544  139.2011  161.3732 C.ar    1  UNL1        0.0400
      5 C         138.1795  138.9012  162.8409 C.ar    1  UNL1        0.0219
      6 C         139.2739  138.1176  163.5032 C.ar    1  UNL1        0.0980
      7 C         140.4431  137.6340  162.6975 C.ar    1  UNL1        0.1567
      8 F         141.5374  136.8505  163.3597 F       1  UNL1       -0.2027
      9 C         140.5179  137.9340  161.2297 C.ar    1  UNL1        0.0502
     10 C         139.4236  138.7175  160.5675 C.ar    1  UNL1        0.0866
     11 C         141.2720  137.8122  156.1405 C.ar    1  UNL1        0.0864
     12 C         140.1930  137.6495  157.1698 C.ar    1  UNL1        0.0308
     13 C         140.1552  138.8963  158.0028 C.ar    1  UNL1        0.0899
     14 C         141.2109  139.8296  157.4885 C.ar    1  UNL1        0.0547
     15 S         141.9011  139.1596  156.3375 S.2     1  UNL1       -0.0802
     16 C         141.6547  136.8045  155.0974 C.2     1  UNL1        0.2751
     17 O         142.6046  137.1843  154.0005 O.2     1  UNL1       -0.2675
     18 N         141.0875  135.4168  155.1513 N.am    1  UNL1       -0.1735
     19 C         144.7284  132.7609  157.9027 C.3     1  UNL1        0.1306
     20 N         143.5686  133.0781  157.0059 N.ar    1  UNL1       -0.3218
     21 C         142.7070  132.0790  156.2921 C.ar    1  UNL1        0.0774
     22 C         141.6727  132.8335  155.5105 C.ar    1  UNL1        0.0368
     23 C         141.8951  134.2989  155.7412 C.ar    1  UNL1        0.0924
     24 C         143.0668  134.4500  156.6654 C.ar    1  UNL1        0.0928
     25 N         139.1990  137.8177  164.9709 N.pl3   1  UNL1       -0.2094
     26 C         139.7496  138.7964  165.9654 C.ar    1  UNL1        0.0811
     27 C         141.1417  139.3301  165.8007 C.ar    1  UNL1        0.0174
     28 C         141.6923  140.3088  166.7952 C.ar    1  UNL1        0.0014
     29 C         140.8508  140.7538  167.9544 C.ar    1  UNL1        0.0010
     30 C         139.4586  140.2202  168.1191 C.ar    1  UNL1        0.0127
     31 C         138.9080  139.2415  167.1246 C.ar    1  UNL1        0.0729
     32 CL        137.5159  138.7078  167.2893 Cl      1  UNL1       -0.0809
@<TRIPOS>BOND
     1    19    20    1
     2    20    21   ar
     3    21    22   ar
     4    22    23   ar
     5    23    18    1
     6    18    16   am
     7    16    17    2
     8    16    11    1
     9    11    12   ar
    10    12    13   ar
    11    13     1    1
    12     1     2   ar
    13     2     3   ar
    14     3     4   ar
    15     4     5   ar
    16     5     6   ar
    17     6    25    1
    18    25    26    1
    19    26    27   ar
    20    27    28   ar
    21    28    29   ar
    22    29    30   ar
    23    30    31   ar
    24    31    32    1
    25     6     7   ar
    26     7     8    1
    27     7     9   ar
    28     9    10   ar
    29    13    14   ar
    30    14    15   ar
    31    23    24   ar
    32    24    20   ar
    33    15    11   ar
    34    10     1   ar
    35    10     4   ar
    36    31    26   ar
@<TRIPOS>MOLECULE
*****
 32 36 0 0 0
SMALL
GASTEIGER

@<TRIPOS>ATOM
      1 N         142.4017  138.5000  159.1458 N.ar    1  UNL1       -0.2290
      2 N         143.7267  139.1713  159.3545 N.ar    1  UNL1       -0.1635
      3 C         143.6718  139.9097  160.6590 C.ar    1  UNL1        0.1220
      4 C         142.3128  139.6948  161.2565 C.ar    1  UNL1        0.0400
      5 C         141.6887  140.1799  162.5313 C.ar    1  UNL1        0.0219
      6 C         140.2796  139.7937  162.8709 C.ar    1  UNL1        0.0980
      7 C         139.4946  138.9224  161.9357 C.ar    1  UNL1        0.1567
      8 F         138.0855  138.5362  162.2752 F       1  UNL1       -0.2027
      9 C         140.1188  138.4373  160.6608 C.ar    1  UNL1        0.0502
     10 C         141.5278  138.8235  160.3212 C.ar    1  UNL1        0.0866
     11 C         141.9902  135.8807  156.3111 C.ar    1  UNL1        0.0864
     12 C         142.7032  136.3947  157.5267 C.ar    1  UNL1        0.0308
     13 C         142.0178  137.6537  157.9683 C.ar    1  UNL1        0.0899
     14 C         140.8813  137.9179  157.0257 C.ar    1  UNL1        0.0547
     15 S         140.8642  136.8221  156.0015 S.2     1  UNL1       -0.0802
     16 C         142.3415  134.6427  155.5405 C.2     1  UNL1        0.2751
     17 O         142.9765  134.7571  154.1863 O.2     1  UNL1       -0.2675
     18 N         142.0579  133.2902  156.1240 N.am    1  UNL1       -0.1735
     19 C         144.8100  129.3961  158.3917 C.3     1  UNL1        0.1306
     20 N         144.4096  130.7453  157.8727 N.ar    1  UNL1       -0.3218
     21 C         145.2243  132.0016  157.9622 C.ar    1  UNL1        0.0774
     22 C         144.4425  133.1078  157.3180 C.ar    1  UNL1        0.0368
     23 C         143.1447  132.5352  156.8304 C.ar    1  UNL1        0.0924
     24 C         143.1244  131.0751  157.1733 C.ar    1  UNL1        0.0928
     25 N         139.6555  140.2788  164.1457 N.pl3   1  UNL1       -0.2094
     26 C         139.3520  141.7368  164.3248 C.ar    1  UNL1        0.0811
     27 C         140.3636  142.6403  164.9654 C.ar    1  UNL1        0.0174
     28 C         140.0600  144.0983  165.1444 C.ar    1  UNL1        0.0014
     29 C         138.7450  144.6528  164.6829 C.ar    1  UNL1        0.0010
     30 C         137.7334  143.7493  164.0422 C.ar    1  UNL1        0.0127
     31 C         138.0369  142.2913  163.8632 C.ar    1  UNL1        0.0729
     32 CL        137.0253  141.3878  163.2226 Cl      1  UNL1       -0.0809
@<TRIPOS>BOND
     1    19    20    1
     2    20    21   ar
     3    21    22   ar
     4    22    23   ar
     5    23    18    1
     6    18    16   am
     7    16    17    2
     8    16    11    1
     9    11    12   ar
    10    12    13   ar
    11    13     1    1
    12     1     2   ar
    13     2     3   ar
    14     3     4   ar
    15     4     5   ar
    16     5     6   ar
    17     6    25    1
    18    25    26    1
    19    26    27   ar
    20    27    28   ar
    21    28    29   ar
    22    29    30   ar
    23    30    31   ar
    24    31    32    1
    25     6     7   ar
    26     7     8    1
    27     7     9   ar
    28     9    10   ar
    29    13    14   ar
    30    14    15   ar
    31    23    24   ar
    32    24    20   ar
    33    15    11   ar
    34    10     1   ar
    35    10     4   ar
    36    31    26   ar
@<TRIPOS>MOLECULE
*****
 32 36 0 0 0
SMALL
GASTEIGER

@<TRIPOS>ATOM
      1 N         143.5981  141.1032  162.6686 N.ar    1  UNL1       -0.2290
      2 N         144.9235  140.4473  162.9200 N.ar    1  UNL1       -0.1635
      3 C         144.8489  139.7437  164.2426 C.ar    1  UNL1        0.1220
      4 C         143.4775  139.9647  164.8086 C.ar    1  UNL1        0.0400
      5 C         142.8327  139.5093  166.0841 C.ar    1  UNL1        0.0219
      6 C         141.4148  139.8943  166.3868 C.ar    1  UNL1        0.0980
      7 C         140.6418  140.7345  165.4140 C.ar    1  UNL1        0.1567
      8 F         139.2240  141.1195  165.7166 F       1  UNL1       -0.2027
      9 C         141.2866  141.1898  164.1384 C.ar    1  UNL1        0.0502
     10 C         142.7044  140.8049  163.8358 C.ar    1  UNL1        0.0866
     11 C         142.2136  143.5875  160.0273 C.ar    1  UNL1        0.0864
     12 C         142.2834  143.0774  161.4362 C.ar    1  UNL1        0.0308
     13 C         143.2309  141.9149  161.4618 C.ar    1  UNL1        0.0899
     14 C         143.7468  141.7065  160.0688 C.ar    1  UNL1        0.0547
     15 S         143.1180  142.7403  159.1822 S.2     1  UNL1       -0.0802
     16 C         141.3849  144.7422  159.5478 C.2     1  UNL1        0.2751
     17 O         142.0278  145.8594  158.7806 O.2     1  UNL1       -0.2675
     18 N         139.9131  144.7797  159.8354 N.am    1  UNL1       -0.1735
     19 C         138.8215  144.8381  165.0011 C.3     1  UNL1        0.1306
     20 N         138.9017  144.4136  163.5647 N.ar    1  UNL1       -0.3218
     21 C         138.3366  143.1505  162.9858 C.ar    1  UNL1        0.0774
     22 C         138.6467  143.1339  161.5183 C.ar    1  UNL1        0.0368
     23 C         139.4034  144.3867  161.1903 C.ar    1  UNL1        0.0924
     24 C         139.5610  145.1776  162.4550 C.ar    1  UNL1        0.0928
     25 N         140.7701  139.4390  167.6623 N.pl3   1  UNL1       -0.2094
     26 C         140.8113  140.3163  168.8782 C.ar    1  UNL1        0.0811
     27 C         139.9518  141.5438  168.9469 C.ar    1  UNL1        0.0174
     28 C         139.9931  142.4211  170.1630 C.ar    1  UNL1        0.0014
     29 C         140.8937  142.0710  171.3102 C.ar    1  UNL1        0.0010
     30 C         141.7531  140.8435  171.2415 C.ar    1  UNL1        0.0127
     31 C         141.7119  139.9662  170.0256 C.ar    1  UNL1        0.0729
     32 CL        142.5714  138.7387  169.9569 Cl      1  UNL1       -0.0809
@<TRIPOS>BOND
     1    19    20    1
     2    20    21   ar
     3    21    22   ar
     4    22    23   ar
     5    23    18    1
     6    18    16   am
     7    16    17    2
     8    16    11    1
     9    11    12   ar
    10    12    13   ar
    11    13     1    1
    12     1     2   ar
    13     2     3   ar
    14     3     4   ar
    15     4     5   ar
    16     5     6   ar
    17     6    25    1
    18    25    26    1
    19    26    27   ar
    20    27    28   ar
    21    28    29   ar
    22    29    30   ar
    23    30    31   ar
    24    31    32    1
    25     6     7   ar
    26     7     8    1
    27     7     9   ar
    28     9    10   ar
    29    13    14   ar
    30    14    15   ar
    31    23    24   ar
    32    24    20   ar
    33    15    11   ar
    34    10     1   ar
    35    10     4   ar
    36    31    26   ar
@<TRIPOS>MOLECULE
*****
 32 36 0 0 0
SMALL
GASTEIGER

@<TRIPOS>ATOM
      1 N         140.9384  139.0696  161.9467 N.ar    1  UNL1       -0.2290
      2 N         140.7885  137.5775  161.9766 N.ar    1  UNL1       -0.1635
      3 C         141.1028  137.1079  163.3661 C.ar    1  UNL1        0.1220
      4 C         141.4469  138.3098  164.1949 C.ar    1  UNL1        0.0400
      5 C         141.8396  138.4569  165.6351 C.ar    1  UNL1        0.0219
      6 C         142.1307  139.8165  166.1980 C.ar    1  UNL1        0.0980
      7 C         142.0291  141.0289  165.3207 C.ar    1  UNL1        0.1567
      8 F         142.3203  142.3885  165.8836 F       1  UNL1       -0.2027
      9 C         141.6364  140.8818  163.8805 C.ar    1  UNL1        0.0502
     10 C         141.3453  139.5223  163.3176 C.ar    1  UNL1        0.0866
     11 C         139.9127  141.7392  159.3224 C.ar    1  UNL1        0.0864
     12 C         139.8298  141.1603  160.7037 C.ar    1  UNL1        0.0308
     13 C         140.7198  139.9540  160.7549 C.ar    1  UNL1        0.0899
     14 C         141.3528  139.7872  159.4053 C.ar    1  UNL1        0.0547
     15 S         140.8540  140.8906  158.5199 S.2     1  UNL1       -0.0802
     16 C         139.1827  142.9534  158.8299 C.2     1  UNL1        0.2751
     17 O         137.9753  142.7985  157.9533 O.2     1  UNL1       -0.2675
     18 N         139.6599  144.3227  159.2141 N.am    1  UNL1       -0.1735
     19 C         143.4112  144.6344  162.9169 C.3     1  UNL1        0.1306
     20 N         142.0792  144.6772  162.2284 N.ar    1  UNL1       -0.3218
     21 C         140.7698  145.0407  162.8634 C.ar    1  UNL1        0.0774
     22 C         139.7041  144.9522  161.8115 C.ar    1  UNL1        0.0368
     23 C         140.3549  144.5339  160.5264 C.ar    1  UNL1        0.0924
     24 C         141.8228  144.3640  160.7841 C.ar    1  UNL1        0.0928
     25 N         142.5234  139.9636  167.6382 N.pl3   1  UNL1       -0.2094
     26 C         141.6332  140.7117  168.5856 C.ar    1  UNL1        0.0811
     27 C         140.2591  140.1934  168.8911 C.ar    1  UNL1        0.0174
     28 C         139.3688  140.9416  169.8386 C.ar    1  UNL1        0.0014
     29 C         139.8526  142.2080  170.4806 C.ar    1  UNL1        0.0010
     30 C         141.2267  142.7262  170.1752 C.ar    1  UNL1        0.0127
     31 C         142.1170  141.9781  169.2277 C.ar    1  UNL1        0.0729
     32 CL        143.4911  142.4963  168.9223 Cl      1  UNL1       -0.0809
@<TRIPOS>BOND
     1    19    20    1
     2    20    21   ar
     3    21    22   ar
     4    22    23   ar
     5    23    18    1
     6    18    16   am
     7    16    17    2
     8    16    11    1
     9    11    12   ar
    10    12    13   ar
    11    13     1    1
    12     1     2   ar
    13     2     3   ar
    14     3     4   ar
    15     4     5   ar
    16     5     6   ar
    17     6    25    1
    18    25    26    1
    19    26    27   ar
    20    27    28   ar
    21    28    29   ar
    22    29    30   ar
    23    30    31   ar
    24    31    32    1
    25     6     7   ar
    26     7     8    1
    27     7     9   ar
    28     9    10   ar
    29    13    14   ar
    30    14    15   ar
    31    23    24   ar
    32    24    20   ar
    33    15    11   ar
    34    10     1   ar
    35    10     4   ar
    36    31    26   ar
@<TRIPOS>MOLECULE
*****
 32 36 0 0 0
SMALL
GASTEIGER

@<TRIPOS>ATOM
      1 N         138.2915  141.5927  160.9455 N.ar    1  UNL1       -0.2290
      2 N         137.8421  142.9952  161.2301 N.ar    1  UNL1       -0.1635
      3 C         137.7397  143.1562  162.7179 C.ar    1  UNL1        0.1220
      4 C         138.1258  141.8532  163.3529 C.ar    1  UNL1        0.0400
      5 C         138.2109  141.4217  164.7869 C.ar    1  UNL1        0.0219
      6 C         138.6371  140.0239  165.1256 C.ar    1  UNL1        0.0980
      7 C         138.9781  139.0576  164.0302 C.ar    1  UNL1        0.1567
      8 F         139.4042  137.6599  164.3688 F       1  UNL1       -0.2027
      9 C         138.8930  139.4891  162.5961 C.ar    1  UNL1        0.0502
     10 C         138.4669  140.8869  162.2574 C.ar    1  UNL1        0.0866
     11 C         139.2614  139.5205  157.8102 C.ar    1  UNL1        0.0864
     12 C         139.2733  139.7335  159.2949 C.ar    1  UNL1        0.0308
     13 C         138.5247  141.0000  159.5875 C.ar    1  UNL1        0.0899
     14 C         138.0501  141.5697  158.2835 C.ar    1  UNL1        0.0547
     15 S         138.5054  140.6553  157.1850 S.2     1  UNL1       -0.0802
     16 C         139.8944  138.3740  157.0788 C.2     1  UNL1        0.2751
     17 O         139.0368  137.2856  156.5045 O.2     1  UNL1       -0.2675
     18 N         141.3851  138.3159  156.9218 N.am    1  UNL1       -0.1735
     19 C         144.0934  138.0262  161.4451 C.3     1  UNL1        0.1306
     20 N         143.5201  138.5349  160.1558 N.ar    1  UNL1       -0.3218
     21 C         143.7698  139.8849  159.5517 C.ar    1  UNL1        0.0774
     22 C         143.0005  139.9672  158.2667 C.ar    1  UNL1        0.0368
     23 C         142.2752  138.6680  158.0766 C.ar    1  UNL1        0.0924
     24 C         142.5964  137.7828  159.2442 C.ar    1  UNL1        0.0928
     25 N         138.7222  139.5925  166.5597 N.pl3   1  UNL1       -0.2094
     26 C         140.0179  139.7176  167.3048 C.ar    1  UNL1        0.0811
     27 C         141.3193  139.5269  166.5836 C.ar    1  UNL1        0.0174
     28 C         142.6151  139.6520  167.3288 C.ar    1  UNL1        0.0014
     29 C         142.6095  139.9677  168.7952 C.ar    1  UNL1        0.0010
     30 C         141.3082  140.1583  169.5164 C.ar    1  UNL1        0.0127
     31 C         140.0124  140.0332  168.7713 C.ar    1  UNL1        0.0729
     32 CL        138.7111  140.2238  169.4925 Cl      1  UNL1       -0.0809
@<TRIPOS>BOND
     1    19    20    1
     2    20    21   ar
     3    21    22   ar
     4    22    23   ar
     5    23    18    1
     6    18    16   am
     7    16    17    2
     8    16    11    1
     9    11    12   ar
    10    12    13   ar
    11    13     1    1
    12     1     2   ar
    13     2     3   ar
    14     3     4   ar
    15     4     5   ar
    16     5     6   ar
    17     6    25    1
    18    25    26    1
    19    26    27   ar
    20    27    28   ar
    21    28    29   ar
    22    29    30   ar
    23    30    31   ar
    24    31    32    1
    25     6     7   ar
    26     7     8    1
    27     7     9   ar
    28     9    10   ar
    29    13    14   ar
    30    14    15   ar
    31    23    24   ar
    32    24    20   ar
    33    15    11   ar
    34    10     1   ar
    35    10     4   ar
    36    31    26   ar
@<TRIPOS>MOLECULE
*****
 32 36 0 0 0
SMALL
GASTEIGER

@<TRIPOS>ATOM
      1 N         139.5090  143.8907  161.8848 N.ar    1  UNL1       -0.2290
      2 N         138.1234  144.4081  162.1344 N.ar    1  UNL1       -0.1635
      3 C         137.6827  143.9210  163.4830 C.ar    1  UNL1        0.1220
      4 C         138.7959  143.1026  164.0668 C.ar    1  UNL1        0.0400
      5 C         138.9276  142.3720  165.3702 C.ar    1  UNL1        0.0219
      6 C         140.1881  141.6226  165.6859 C.ar    1  UNL1        0.0980
      7 C         141.3168  141.6038  164.6982 C.ar    1  UNL1        0.1567
      8 F         142.5773  140.8544  165.0138 F       1  UNL1       -0.2027
      9 C         141.1851  142.3345  163.3947 C.ar    1  UNL1        0.0502
     10 C         139.9246  143.0838  163.0791 C.ar    1  UNL1        0.0866
     11 C         141.7806  143.7873  158.7393 C.ar    1  UNL1        0.0864
     12 C         141.1050  143.1030  159.8906 C.ar    1  UNL1        0.0308
     13 C         140.3341  144.1369  160.6566 C.ar    1  UNL1        0.0899
     14 C         140.5332  145.4601  159.9789 C.ar    1  UNL1        0.0547
     15 S         141.4272  145.2441  158.7938 S.2     1  UNL1       -0.0802
     16 C         142.6559  143.1302  157.7136 C.2     1  UNL1        0.2751
     17 O         142.1958  143.0282  156.2895 O.2     1  UNL1       -0.2675
     18 N         143.9913  142.5752  158.1119 N.am    1  UNL1       -0.1735
     19 C         145.2773  141.8975  163.1880 C.3     1  UNL1        0.1306
     20 N         144.7646  141.6478  161.8007 N.ar    1  UNL1       -0.3218
     21 C         144.1431  140.3754  161.3062 C.ar    1  UNL1        0.0774
     22 C         143.7777  140.5679  159.8641 C.ar    1  UNL1        0.0368
     23 C         144.1735  141.9593  159.4675 C.ar    1  UNL1        0.0924
     24 C         144.7834  142.6267  160.6644 C.ar    1  UNL1        0.0928
     25 N         140.3198  140.8919  166.9892 N.pl3   1  UNL1       -0.2094
     26 C         141.1238  141.4892  168.1059 C.ar    1  UNL1        0.0811
     27 C         140.6890  142.7788  168.7366 C.ar    1  UNL1        0.0174
     28 C         141.4931  143.3761  169.8533 C.ar    1  UNL1        0.0014
     29 C         142.7318  142.6836  170.3392 C.ar    1  UNL1        0.0010
     30 C         143.1665  141.3940  169.7084 C.ar    1  UNL1        0.0127
     31 C         142.3625  140.7968  168.5918 C.ar    1  UNL1        0.0729
     32 CL        142.7973  139.5071  167.9611 Cl      1  UNL1       -0.0809
@<TRIPOS>BOND
     1    19    20    1
     2    20    21   ar
     3    21    22   ar
     4    22    23   ar
     5    23    18    1
     6    18    16   am
     7    16    17    2
     8    16    11    1
     9    11    12   ar
    10    12    13   ar
    11    13     1    1
    12     1     2   ar
    13     2     3   ar
    14     3     4   ar
    15     4     5   ar
    16     5     6   ar
    17     6    25    1
    18    25    26    1
    19    26    27   ar
    20    27    28   ar
    21    28    29   ar
    22    29    30   ar
    23    30    31   ar
    24    31    32    1
    25     6     7   ar
    26     7     8    1
    27     7     9   ar
    28     9    10   ar
    29    13    14   ar
    30    14    15   ar
    31    23    24   ar
    32    24    20   ar
    33    15    11   ar
    34    10     1   ar
    35    10     4   ar
    36    31    26   ar
@<TRIPOS>MOLECULE
*****
 32 36 0 0 0
SMALL
GASTEIGER

@<TRIPOS>ATOM
      1 N         139.5658  138.8725  158.0949 N.ar    1  UNL1       -0.2290
      2 N         138.6351  139.7822  157.3491 N.ar    1  UNL1       -0.1635
      3 C         137.8090  140.5265  158.3558 C.ar    1  UNL1        0.1220
      4 C         138.2291  140.0769  159.7238 C.ar    1  UNL1        0.0400
      5 C         137.7632  140.4663  161.0954 C.ar    1  UNL1        0.0219
      6 C         138.3832  139.8334  162.3058 C.ar    1  UNL1        0.0980
      7 C         139.4690  138.8111  162.1446 C.ar    1  UNL1        0.1567
      8 F         140.0890  138.1782  163.3550 F       1  UNL1       -0.2027
      9 C         139.9348  138.4217  160.7729 C.ar    1  UNL1        0.0502
     10 C         139.3149  139.0546  159.5625 C.ar    1  UNL1        0.0866
     11 C         141.5817  136.2226  156.1001 C.ar    1  UNL1        0.0864
     12 C         140.2946  136.9257  156.4145 C.ar    1  UNL1        0.0308
     13 C         140.5710  137.9437  157.4810 C.ar    1  UNL1        0.0899
     14 C         142.0290  137.8699  157.8256 C.ar    1  UNL1        0.0547
     15 S         142.6537  136.8061  156.9721 S.2     1  UNL1       -0.0802
     16 C         141.7649  135.1282  155.0908 C.2     1  UNL1        0.2751
     17 O         142.5646  135.3810  153.8471 O.2     1  UNL1       -0.2675
     18 N         141.1483  133.7810  155.3251 N.am    1  UNL1       -0.1735
     19 C         144.8017  131.0182  157.9519 C.3     1  UNL1        0.1306
     20 N         143.6718  131.3766  157.0326 N.ar    1  UNL1       -0.3218
     21 C         142.9118  130.4249  156.1572 C.ar    1  UNL1        0.0774
     22 C         141.8739  131.2097  155.4109 C.ar    1  UNL1        0.0368
     23 C         141.9926  132.6465  155.8252 C.ar    1  UNL1        0.0924
     24 C         143.1038  132.7496  156.8275 C.ar    1  UNL1        0.0928
     25 N         137.9174  140.2227  163.6774 N.pl3   1  UNL1       -0.2094
     26 C         138.3076  141.5518  164.2528 C.ar    1  UNL1        0.0811
     27 C         137.5660  142.7913  163.8482 C.ar    1  UNL1        0.0174
     28 C         137.9563  144.1204  164.4236 C.ar    1  UNL1        0.0014
     29 C         139.0883  144.2101  165.4037 C.ar    1  UNL1        0.0010
     30 C         139.8300  142.9706  165.8084 C.ar    1  UNL1        0.0127
     31 C         139.4397  141.6416  165.2330 C.ar    1  UNL1        0.0729
     32 CL        140.1813  140.4021  165.6376 Cl      1  UNL1       -0.0809
@<TRIPOS>BOND
     1    19    20    1
     2    20    21   ar
     3    21    22   ar
     4    22    23   ar
     5    23    18    1
     6    18    16   am
     7    16    17    2
     8    16    11    1
     9    11    12   ar
    10    12    13   ar
    11    13     1    1
    12     1     2   ar
    13     2     3   ar
    14     3     4   ar
    15     4     5   ar
    16     5     6   ar
    17     6    25    1
    18    25    26    1
    19    26    27   ar
    20    27    28   ar
    21    28    29   ar
    22    29    30   ar
    23    30    31   ar
    24    31    32    1
    25     6     7   ar
    26     7     8    1
    27     7     9   ar
    28     9    10   ar
    29    13    14   ar
    30    14    15   ar
    31    23    24   ar
    32    24    20   ar
    33    15    11   ar
    34    10     1   ar
    35    10     4   ar
    36    31    26   ar
@<TRIPOS>MOLECULE
*****
 32 36 0 0 0
SMALL
GASTEIGER

@<TRIPOS>ATOM
      1 N         141.3205  138.1913  162.3741 N.ar    1  UNL1       -0.2290
      2 N         140.9842  136.9734  163.1825 N.ar    1  UNL1       -0.1635
      3 C         141.2477  137.2876  164.6254 C.ar    1  UNL1        0.1220
      4 C         141.7469  138.6997  164.7087 C.ar    1  UNL1        0.0400
      5 C         142.1663  139.5490  165.8717 C.ar    1  UNL1        0.0219
      6 C         142.6308  140.9570  165.6433 C.ar    1  UNL1        0.0980
      7 C         142.6758  141.5155  164.2519 C.ar    1  UNL1        0.1567
      8 F         143.1403  142.9233  164.0235 F       1  UNL1       -0.2027
      9 C         142.2564  140.6660  163.0889 C.ar    1  UNL1        0.0502
     10 C         141.7920  139.2582  163.3172 C.ar    1  UNL1        0.0866
     11 C         141.7300  138.2619  158.5150 C.ar    1  UNL1        0.0864
     12 C         142.2724  137.9817  159.8851 C.ar    1  UNL1        0.0308
     13 C         141.2057  138.3198  160.8840 C.ar    1  UNL1        0.0899
     14 C         140.0040  138.8089  160.1312 C.ar    1  UNL1        0.0547
     15 S         140.3280  138.7732  158.6670 S.2     1  UNL1       -0.0802
     16 C         142.4611  138.0653  157.2201 C.2     1  UNL1        0.2751
     17 O         143.7415  138.8031  156.9621 O.2     1  UNL1       -0.2675
     18 N         141.9120  137.1309  156.1830 N.am    1  UNL1       -0.1735
     19 C         144.2288  132.5536  157.4324 C.3     1  UNL1        0.1306
     20 N         143.3134  133.5662  156.8104 N.ar    1  UNL1       -0.3218
     21 C         142.2196  133.2783  155.8253 C.ar    1  UNL1        0.0774
     22 C         141.5614  134.5786  155.4704 C.ar    1  UNL1        0.0368
     23 C         142.2485  135.6701  156.2361 C.ar    1  UNL1        0.0924
     24 C         143.3314  135.0444  157.0643 C.ar    1  UNL1        0.0928
     25 N         143.0502  141.8063  166.8064 N.pl3   1  UNL1       -0.2094
     26 C         142.3070  141.7177  168.1063 C.ar    1  UNL1        0.0811
     27 C         142.9330  141.0289  169.2826 C.ar    1  UNL1        0.0174
     28 C         142.1897  140.9403  170.5826 C.ar    1  UNL1        0.0014
     29 C         140.8206  141.5405  170.7062 C.ar    1  UNL1        0.0010
     30 C         140.1947  142.2292  169.5298 C.ar    1  UNL1        0.0127
     31 C         140.9378  142.3179  168.2299 C.ar    1  UNL1        0.0729
     32 CL        140.3119  143.0066  167.0536 Cl      1  UNL1       -0.0809
@<TRIPOS>BOND
     1    19    20    1
     2    20    21   ar
     3    21    22   ar
     4    22    23   ar
     5    23    18    1
     6    18    16   am
     7    16    17    2
     8    16    11    1
     9    11    12   ar
    10    12    13   ar
    11    13     1    1
    12     1     2   ar
    13     2     3   ar
    14     3     4   ar
    15     4     5   ar
    16     5     6   ar
    17     6    25    1
    18    25    26    1
    19    26    27   ar
    20    27    28   ar
    21    28    29   ar
    22    29    30   ar
    23    30    31   ar
    24    31    32    1
    25     6     7   ar
    26     7     8    1
    27     7     9   ar
    28     9    10   ar
    29    13    14   ar
    30    14    15   ar
    31    23    24   ar
    32    24    20   ar
    33    15    11   ar
    34    10     1   ar
    35    10     4   ar
    36    31    26   ar
