@<TRIPOS>MOLECULE
*****
 42 45 0 0 0
SMALL
GASTEIGER

@<TRIPOS>ATOM
      1 C         142.2233  139.9828  166.8722 C.ar    1  UNL1        0.1217
      2 C         142.3237  138.7498  166.0240 C.ar    1  UNL1        0.0196
      3 C         141.9749  138.8118  164.5664 C.ar    1  UNL1       -0.0011
      4 C         141.5258  140.1067  163.9571 C.ar    1  UNL1        0.0022
      5 C         141.4254  141.3397  164.8053 C.ar    1  UNL1       -0.0029
      6 C         141.7742  141.2778  166.2629 C.ar    1  UNL1        0.0170
      7 C         140.9562  142.4659  163.9325 C.3     1  UNL1        0.1207
      8 N         140.7667  141.9288  162.5449 N.am    1  UNL1       -0.2635
      9 C         140.3060  142.7122  161.3515 C.2     1  UNL1        0.2537
     10 O         140.1626  142.0361  160.0203 O.2     1  UNL1       -0.2722
     11 C         141.1187  140.4708  162.5601 C.3     1  UNL1        0.1751
     12 C         139.9887  144.1718  161.4894 C.3     1  UNL1        0.1935
     13 C         140.6725  145.4476  161.0963 C.3     1  UNL1        0.0711
     14 C         139.5400  146.2359  161.6845 C.3     1  UNL1        0.1457
     15 O         138.8562  144.9600  162.0776 O.3     1  UNL1       -0.3469
     16 C         141.0718  139.5402  161.3846 C.2     1  UNL1        0.2485
     17 O         140.0797  138.4155  161.3574 O.2     1  UNL1       -0.2726
     18 N         142.0171  139.7342  160.2362 N.am    1  UNL1       -0.2823
     19 H         142.6683  140.4723  160.2540 H       1  UNL1        0.1549
     20 C         141.9702  138.8036  159.0608 C.ar    1  UNL1        0.0503
     21 C         142.8182  137.5663  159.0494 C.ar    1  UNL1        0.0144
     22 C         142.7713  136.6356  157.8740 C.ar    1  UNL1       -0.0002
     23 C         141.8766  136.9423  156.7098 C.ar    1  UNL1        0.0182
     24 C         141.0286  138.1796  156.7211 C.ar    1  UNL1       -0.0002
     25 C         141.0755  139.1102  157.8966 C.ar    1  UNL1        0.0144
     26 C         141.8297  136.0116  155.5343 C.3     1  UNL1        0.2827
     27 O         140.3456  135.8736  155.7028 O.3     1  UNL1       -0.3692
     28 H         140.0543  136.4112  156.4558 H       1  UNL1        0.2112
     29 C         141.7828  135.0810  154.3588 C.3     1  UNL1        0.4311
     30 F         141.7359  134.1504  153.1834 F       1  UNL1       -0.1669
     31 F         141.3951  133.9525  155.2677 F       1  UNL1       -0.1669
     32 F         142.0067  135.6755  153.7415 F       1  UNL1       -0.1669
     33 C         143.3138  136.1497  155.3658 C.3     1  UNL1        0.4311
     34 F         144.7979  136.2878  155.1973 F       1  UNL1       -0.1669
     35 F         143.3122  136.9867  155.0760 F       1  UNL1       -0.1669
     36 F         143.8525  134.8140  155.7848 F       1  UNL1       -0.1669
     37 S         142.5721  139.9209  168.3298 S.O2    1  UNL1        0.0603
     38 O         141.8553  141.2189  168.5565 O.2     1  UNL1       -0.1530
     39 O         143.2889  138.6229  168.1032 O.2     1  UNL1       -0.1530
     40 C         142.1748  140.7077  170.7738 C.3     1  UNL1        0.1102
     41 N         142.9208  139.8590  169.7874 N.3     1  UNL1       -0.1779
     42 H         142.7958  138.8896  170.0792 H       1  UNL1        0.1488
@<TRIPOS>BOND
     1    40    41    1
     2    41    37    1
     3    37    38    2
     4    37    39    2
     5    37     1    1
     6     1     2   ar
     7     2     3   ar
     8     3     4   ar
     9     4     5   ar
    10     5     6   ar
    11     5     7    1
    12     7     8    1
    13     8     9   am
    14     9    10    2
    15     9    12    1
    16    12    13    1
    17    13    14    1
    18    14    15    1
    19     8    11    1
    20    11    16    1
    21    16    17    2
    22    16    18   am
    23    18    20    1
    24    20    21   ar
    25    21    22   ar
    26    22    23   ar
    27    23    26    1
    28    26    27    1
    29    26    29    1
    30    29    30    1
    31    29    31    1
    32    29    32    1
    33    26    33    1
    34    33    34    1
    35    33    35    1
    36    33    36    1
    37    23    24   ar
    38    24    25   ar
    39     6     1   ar
    40    15    12    1
    41    25    20   ar
    42    11     4    1
    43    41    42    1
    44    18    19    1
    45    27    28    1
@<TRIPOS>MOLECULE
*****
 42 45 0 0 0
SMALL
GASTEIGER

@<TRIPOS>ATOM
      1 C         142.9385  137.5608  156.9886 C.ar    1  UNL1        0.1217
      2 C         142.9055  137.0042  158.3811 C.ar    1  UNL1        0.0196
      3 C         142.6588  137.9148  159.5472 C.ar    1  UNL1       -0.0011
      4 C         142.4451  139.3821  159.3208 C.ar    1  UNL1        0.0022
      5 C         142.4781  139.9388  157.9283 C.ar    1  UNL1       -0.0029
      6 C         142.7248  139.0281  156.7622 C.ar    1  UNL1        0.0170
      7 C         142.2355  141.4166  158.0140 C.3     1  UNL1        0.1207
      8 N         142.0525  141.7732  159.4594 N.am    1  UNL1       -0.2635
      9 C         141.7867  143.1462  160.0020 C.2     1  UNL1        0.2537
     10 O         141.6252  143.3506  161.4791 O.2     1  UNL1       -0.2722
     11 C         142.1821  140.5159  160.2671 C.3     1  UNL1        0.1751
     12 C         141.6823  144.3148  159.0673 C.3     1  UNL1        0.1935
     13 C         140.5821  145.2460  158.6522 C.3     1  UNL1        0.0711
     14 C         141.5348  145.9673  157.7455 C.3     1  UNL1        0.1457
     15 O         142.6349  145.0361  158.1606 O.3     1  UNL1       -0.3469
     16 C         142.0686  140.4107  161.7590 C.2     1  UNL1        0.2485
     17 O         143.2853  140.1149  162.5848 O.2     1  UNL1       -0.2726
     18 N         140.7383  140.6014  162.4253 N.am    1  UNL1       -0.2823
     19 H         139.9396  140.7955  161.8833 H       1  UNL1        0.1549
     20 C         140.6247  140.4962  163.9173 C.ar    1  UNL1        0.0503
     21 C         140.4246  139.1566  164.5617 C.ar    1  UNL1        0.0144
     22 C         140.3111  139.0514  166.0537 C.ar    1  UNL1       -0.0002
     23 C         140.3977  140.2859  166.9013 C.ar    1  UNL1        0.0182
     24 C         140.5978  141.6255  166.2569 C.ar    1  UNL1       -0.0002
     25 C         140.7113  141.7307  164.7649 C.ar    1  UNL1        0.0144
     26 C         140.2842  140.1807  168.3933 C.3     1  UNL1        0.2827
     27 O         138.9200  139.5745  168.2468 O.3     1  UNL1       -0.3692
     28 H         138.6951  139.5080  167.3056 H       1  UNL1        0.2112
     29 C         140.1707  140.0756  169.8853 C.3     1  UNL1        0.4311
     30 F         140.0571  139.9704  171.3773 F       1  UNL1       -0.1669
     31 F         139.1185  141.1446  169.8806 F       1  UNL1       -0.1669
     32 F         140.7792  139.4414  169.9954 F       1  UNL1       -0.1669
     33 C         141.6484  140.7869  168.5398 C.3     1  UNL1        0.4311
     34 F         143.0126  141.3931  168.6863 F       1  UNL1       -0.1669
     35 F         141.3839  141.5762  168.8425 F       1  UNL1       -0.1669
     36 F         142.5789  139.6991  168.0917 F       1  UNL1       -0.1669
     37 S         143.1852  136.6501  155.8225 S.O2    1  UNL1        0.0603
     38 O         141.8197  136.0548  155.9985 O.2     1  UNL1       -0.1530
     39 O         144.5508  137.2453  155.6465 O.2     1  UNL1       -0.1530
     40 C         142.4583  134.6425  154.3423 C.3     1  UNL1        0.1102
     41 N         143.4319  135.7394  154.6564 N.3     1  UNL1       -0.1779
     42 H         143.4866  136.3309  153.8272 H       1  UNL1        0.1488
@<TRIPOS>BOND
     1    40    41    1
     2    41    37    1
     3    37    38    2
     4    37    39    2
     5    37     1    1
     6     1     2   ar
     7     2     3   ar
     8     3     4   ar
     9     4     5   ar
    10     5     6   ar
    11     5     7    1
    12     7     8    1
    13     8     9   am
    14     9    10    2
    15     9    12    1
    16    12    13    1
    17    13    14    1
    18    14    15    1
    19     8    11    1
    20    11    16    1
    21    16    17    2
    22    16    18   am
    23    18    20    1
    24    20    21   ar
    25    21    22   ar
    26    22    23   ar
    27    23    26    1
    28    26    27    1
    29    26    29    1
    30    29    30    1
    31    29    31    1
    32    29    32    1
    33    26    33    1
    34    33    34    1
    35    33    35    1
    36    33    36    1
    37    23    24   ar
    38    24    25   ar
    39     6     1   ar
    40    15    12    1
    41    25    20   ar
    42    11     4    1
    43    41    42    1
    44    18    19    1
    45    27    28    1
@<TRIPOS>MOLECULE
*****
 42 45 0 0 0
SMALL
GASTEIGER

@<TRIPOS>ATOM
      1 C         147.2672  141.7128  155.3945 C.ar    1  UNL1        0.1217
      2 C         146.9619  142.6006  156.5644 C.ar    1  UNL1        0.0196
      3 C         145.7806  142.3068  157.4407 C.ar    1  UNL1       -0.0011
      4 C         144.9045  141.1251  157.1473 C.ar    1  UNL1        0.0022
      5 C         145.2098  140.2373  155.9775 C.ar    1  UNL1       -0.0029
      6 C         146.3912  140.5311  155.1011 C.ar    1  UNL1        0.0170
      7 C         144.1744  139.1527  155.9360 C.3     1  UNL1        0.1207
      8 N         143.2292  139.3703  157.0802 N.am    1  UNL1       -0.2635
      9 C         142.0413  138.5184  157.4168 C.2     1  UNL1        0.2537
     10 O         141.1830  138.8614  158.5981 O.2     1  UNL1       -0.2722
     11 C         143.6804  140.5893  157.8288 C.3     1  UNL1        0.1751
     12 C         141.7117  137.3235  156.5719 C.3     1  UNL1        0.1935
     13 C         140.8297  137.0750  155.3844 C.3     1  UNL1        0.0711
     14 C         141.2457  135.6338  155.3772 C.3     1  UNL1        0.1457
     15 O         142.1277  135.8825  156.5647 O.3     1  UNL1       -0.3469
     16 C         143.0230  141.1705  159.0454 C.2     1  UNL1        0.2485
     17 O         143.6785  141.0374  160.3880 O.2     1  UNL1       -0.2726
     18 N         141.7100  141.8848  158.9194 N.am    1  UNL1       -0.2823
     19 H         141.2798  141.9721  158.0382 H       1  UNL1        0.1549
     20 C         141.0526  142.4659  160.1359 C.ar    1  UNL1        0.0503
     21 C         140.4730  141.5590  161.1807 C.ar    1  UNL1        0.0144
     22 C         139.8155  142.1402  162.3973 C.ar    1  UNL1       -0.0002
     23 C         139.7377  143.6282  162.5691 C.ar    1  UNL1        0.0182
     24 C         140.3174  144.5351  161.5244 C.ar    1  UNL1       -0.0002
     25 C         140.9748  143.9540  160.3078 C.ar    1  UNL1        0.0144
     26 C         139.0803  144.2094  163.7857 C.3     1  UNL1        0.2827
     27 O         137.9225  144.6595  162.9450 O.3     1  UNL1       -0.3692
     28 H         138.0737  144.4022  162.0221 H       1  UNL1        0.2112
     29 C         138.4229  144.7906  165.0023 C.3     1  UNL1        0.4311
     30 F         137.7655  145.3717  166.2188 F       1  UNL1       -0.1669
     31 F         137.3167  143.7843  164.8852 F       1  UNL1       -0.1669
     32 F         139.0239  145.4222  165.1584 F       1  UNL1       -0.1669
     33 C         140.2382  143.7593  164.6264 C.3     1  UNL1        0.4311
     34 F         141.3960  143.3092  165.4671 F       1  UNL1       -0.1669
     35 F         139.8274  143.0816  165.0220 F       1  UNL1       -0.1669
     36 F         141.3364  144.7187  164.2751 F       1  UNL1       -0.1669
     37 S         148.4486  142.0066  154.5182 S.O2    1  UNL1        0.0603
     38 O         149.3687  141.7683  155.6786 O.2     1  UNL1       -0.1530
     39 O         147.5285  142.2449  153.3577 O.2     1  UNL1       -0.1530
     40 C         149.7094  143.6027  152.9017 C.3     1  UNL1        0.1102
     41 N         149.6300  142.3004  153.6418 N.3     1  UNL1       -0.1779
     42 H         150.4575  142.2485  154.2359 H       1  UNL1        0.1488
@<TRIPOS>BOND
     1    40    41    1
     2    41    37    1
     3    37    38    2
     4    37    39    2
     5    37     1    1
     6     1     2   ar
     7     2     3   ar
     8     3     4   ar
     9     4     5   ar
    10     5     6   ar
    11     5     7    1
    12     7     8    1
    13     8     9   am
    14     9    10    2
    15     9    12    1
    16    12    13    1
    17    13    14    1
    18    14    15    1
    19     8    11    1
    20    11    16    1
    21    16    17    2
    22    16    18   am
    23    18    20    1
    24    20    21   ar
    25    21    22   ar
    26    22    23   ar
    27    23    26    1
    28    26    27    1
    29    26    29    1
    30    29    30    1
    31    29    31    1
    32    29    32    1
    33    26    33    1
    34    33    34    1
    35    33    35    1
    36    33    36    1
    37    23    24   ar
    38    24    25   ar
    39     6     1   ar
    40    15    12    1
    41    25    20   ar
    42    11     4    1
    43    41    42    1
    44    18    19    1
    45    27    28    1
@<TRIPOS>MOLECULE
*****
 42 45 0 0 0
SMALL
GASTEIGER

@<TRIPOS>ATOM
      1 C         140.5857  145.2535  157.4584 C.ar    1  UNL1        0.1217
      2 C         140.4977  145.5356  158.9289 C.ar    1  UNL1        0.0196
      3 C         140.6874  144.4243  159.9185 C.ar    1  UNL1       -0.0011
      4 C         140.9652  143.0310  159.4374 C.ar    1  UNL1        0.0022
      5 C         141.0532  142.7489  157.9668 C.ar    1  UNL1       -0.0029
      6 C         140.8635  143.8602  156.9773 C.ar    1  UNL1        0.0170
      7 C         141.3371  141.2864  157.7915 C.3     1  UNL1        0.1207
      8 N         141.4245  140.6647  159.1538 N.am    1  UNL1       -0.2635
      9 C         141.6944  139.2186  159.4473 C.2     1  UNL1        0.2537
     10 O         141.7531  138.7400  160.8677 O.2     1  UNL1       -0.2722
     11 C         141.1946  141.7429  160.1710 C.3     1  UNL1        0.1751
     12 C         141.9056  138.2513  158.3205 C.3     1  UNL1        0.1935
     13 C         141.0217  137.6153  157.2890 C.3     1  UNL1        0.0711
     14 C         142.2043  136.8834  156.7270 C.3     1  UNL1        0.1457
     15 O         143.0881  137.5194  157.7586 O.3     1  UNL1       -0.3469
     16 C         141.1943  141.5644  161.6603 C.2     1  UNL1        0.2485
     17 O         142.3869  141.9859  162.4665 O.2     1  UNL1       -0.2726
     18 N         140.0013  140.9643  162.3435 N.am    1  UNL1       -0.2823
     19 H         139.2186  140.6876  161.8143 H       1  UNL1        0.1549
     20 C         140.0010  140.7857  163.8328 C.ar    1  UNL1        0.0503
     21 C         140.1733  139.4180  164.4243 C.ar    1  UNL1        0.0144
     22 C         140.1729  139.2395  165.9136 C.ar    1  UNL1       -0.0002
     23 C         140.0003  140.4285  166.8115 C.ar    1  UNL1        0.0182
     24 C         139.8281  141.7962  166.2200 C.ar    1  UNL1       -0.0002
     25 C         139.8284  141.9748  164.7307 C.ar    1  UNL1        0.0144
     26 C         140.0000  140.2500  168.3008 C.3     1  UNL1        0.2827
     27 O         138.7675  139.4012  168.1988 O.3     1  UNL1       -0.3692
     28 H         138.5020  139.3271  167.2688 H       1  UNL1        0.2112
     29 C         139.9997  140.0715  169.7902 C.3     1  UNL1        0.4311
     30 F         139.9993  139.8929  171.2795 F       1  UNL1       -0.1669
     31 F         138.7745  140.9307  169.8929 F       1  UNL1       -0.1669
     32 F         140.7177  139.5550  169.8371 F       1  UNL1       -0.1669
     33 C         141.2325  141.0988  168.4029 C.3     1  UNL1        0.4311
     34 F         142.4651  141.9476  168.5049 F       1  UNL1       -0.1669
     35 F         140.8448  141.8096  168.7620 F       1  UNL1       -0.1669
     36 F         142.3196  140.2286  167.8452 F       1  UNL1       -0.1669
     37 S         140.3960  146.3647  156.4689 S.O2    1  UNL1        0.0603
     38 O         141.3740  145.7061  155.5417 O.2     1  UNL1       -0.1530
     39 O         139.4180  147.0234  157.3960 O.2     1  UNL1       -0.1530
     40 C         138.9219  148.2504  155.4584 C.3     1  UNL1        0.1102
     41 N         140.2063  147.4760  155.4793 N.3     1  UNL1       -0.1779
     42 H         140.9537  148.1497  155.6464 H       1  UNL1        0.1488
@<TRIPOS>BOND
     1    40    41    1
     2    41    37    1
     3    37    38    2
     4    37    39    2
     5    37     1    1
     6     1     2   ar
     7     2     3   ar
     8     3     4   ar
     9     4     5   ar
    10     5     6   ar
    11     5     7    1
    12     7     8    1
    13     8     9   am
    14     9    10    2
    15     9    12    1
    16    12    13    1
    17    13    14    1
    18    14    15    1
    19     8    11    1
    20    11    16    1
    21    16    17    2
    22    16    18   am
    23    18    20    1
    24    20    21   ar
    25    21    22   ar
    26    22    23   ar
    27    23    26    1
    28    26    27    1
    29    26    29    1
    30    29    30    1
    31    29    31    1
    32    29    32    1
    33    26    33    1
    34    33    34    1
    35    33    35    1
    36    33    36    1
    37    23    24   ar
    38    24    25   ar
    39     6     1   ar
    40    15    12    1
    41    25    20   ar
    42    11     4    1
    43    41    42    1
    44    18    19    1
    45    27    28    1
@<TRIPOS>MOLECULE
*****
 42 45 0 0 0
SMALL
GASTEIGER

@<TRIPOS>ATOM
      1 C         143.2706  132.9523  155.6804 C.ar    1  UNL1        0.1217
      2 C         144.1095  133.5488  156.7714 C.ar    1  UNL1        0.0196
      3 C         143.7691  134.9006  157.3253 C.ar    1  UNL1       -0.0011
      4 C         142.5897  135.6559  156.7881 C.ar    1  UNL1        0.0022
      5 C         141.7509  135.0594  155.6970 C.ar    1  UNL1       -0.0029
      6 C         142.0913  133.7076  155.1432 C.ar    1  UNL1        0.0170
      7 C         140.6570  136.0321  155.3690 C.3     1  UNL1        0.1207
      8 N         140.8200  137.2297  156.2573 N.am    1  UNL1       -0.2635
      9 C         139.9425  138.4463  156.2669 C.2     1  UNL1        0.2537
     10 O         140.2303  139.5711  157.2166 O.2     1  UNL1       -0.2722
     11 C         142.0144  136.9972  157.1343 C.3     1  UNL1        0.1751
     12 C         138.7772  138.5380  155.3268 C.3     1  UNL1        0.1935
     13 C         138.3530  139.4965  154.2539 C.3     1  UNL1        0.0711
     14 C         137.1293  138.6677  153.9974 C.3     1  UNL1        0.1457
     15 O         137.5537  137.7092  155.0703 O.3     1  UNL1       -0.3469
     16 C         142.5412  137.9404  158.1750 C.2     1  UNL1        0.2485
     17 O         143.7063  138.8308  157.8594 O.2     1  UNL1       -0.2726
     18 N         141.9027  137.9932  159.5313 N.am    1  UNL1       -0.2823
     19 H         141.1380  137.4088  159.7385 H       1  UNL1        0.1549
     20 C         142.4295  138.9364  160.5719 C.ar    1  UNL1        0.0503
     21 C         141.7536  140.2562  160.7989 C.ar    1  UNL1        0.0144
     22 C         142.2803  141.1994  161.8395 C.ar    1  UNL1       -0.0002
     23 C         143.4829  140.8229  162.6532 C.ar    1  UNL1        0.0182
     24 C         144.1587  139.5031  162.4263 C.ar    1  UNL1       -0.0002
     25 C         143.6320  138.5599  161.3857 C.ar    1  UNL1        0.0144
     26 C         144.0096  141.7661  163.6939 C.3     1  UNL1        0.2827
     27 O         143.5801  140.8161  164.7723 O.3     1  UNL1       -0.3692
     28 H         143.1664  140.0363  164.3703 H       1  UNL1        0.2112
     29 C         144.5363  142.7093  164.7345 C.3     1  UNL1        0.4311
     30 F         145.0630  143.6525  165.7751 F       1  UNL1       -0.1669
     31 F         143.1364  142.9717  165.2052 F       1  UNL1       -0.1669
     32 F         145.3947  142.6234  164.5335 F       1  UNL1       -0.1669
     33 C         144.4390  142.7161  162.6154 C.3     1  UNL1        0.4311
     34 F         144.8685  143.6661  161.5370 F       1  UNL1       -0.1669
     35 F         145.0961  142.2195  162.2894 F       1  UNL1       -0.1669
     36 F         143.5065  143.8813  162.7657 F       1  UNL1       -0.1669
     37 S         143.6111  131.6005  155.1265 S.O2    1  UNL1        0.0603
     38 O         142.2313  131.4897  154.5487 O.2     1  UNL1       -0.1530
     39 O         144.9909  131.7113  155.7043 O.2     1  UNL1       -0.1530
     40 C         144.9314  129.3690  155.2909 C.3     1  UNL1        0.1102
     41 N         143.9515  130.2487  154.5726 N.3     1  UNL1       -0.1779
     42 H         143.0773  129.7269  154.5113 H       1  UNL1        0.1488
@<TRIPOS>BOND
     1    40    41    1
     2    41    37    1
     3    37    38    2
     4    37    39    2
     5    37     1    1
     6     1     2   ar
     7     2     3   ar
     8     3     4   ar
     9     4     5   ar
    10     5     6   ar
    11     5     7    1
    12     7     8    1
    13     8     9   am
    14     9    10    2
    15     9    12    1
    16    12    13    1
    17    13    14    1
    18    14    15    1
    19     8    11    1
    20    11    16    1
    21    16    17    2
    22    16    18   am
    23    18    20    1
    24    20    21   ar
    25    21    22   ar
    26    22    23   ar
    27    23    26    1
    28    26    27    1
    29    26    29    1
    30    29    30    1
    31    29    31    1
    32    29    32    1
    33    26    33    1
    34    33    34    1
    35    33    35    1
    36    33    36    1
    37    23    24   ar
    38    24    25   ar
    39     6     1   ar
    40    15    12    1
    41    25    20   ar
    42    11     4    1
    43    41    42    1
    44    18    19    1
    45    27    28    1
@<TRIPOS>MOLECULE
*****
 42 45 0 0 0
SMALL
GASTEIGER

@<TRIPOS>ATOM
      1 C         142.2607  136.2088  155.4326 C.ar    1  UNL1        0.1217
      2 C         141.2074  136.5651  156.4393 C.ar    1  UNL1        0.0196
      3 C         141.2882  137.8666  157.1807 C.ar    1  UNL1       -0.0011
      4 C         142.4223  138.8117  156.9154 C.ar    1  UNL1        0.0022
      5 C         143.4756  138.4554  155.9087 C.ar    1  UNL1       -0.0029
      6 C         143.3948  137.1540  155.1673 C.ar    1  UNL1        0.0170
      7 C         144.4683  139.5790  155.8590 C.3     1  UNL1        0.1207
      8 N         144.0283  140.6296  156.8350 N.am    1  UNL1       -0.2635
      9 C         144.7298  141.9268  157.1098 C.2     1  UNL1        0.2537
     10 O         144.1682  142.8839  158.1191 O.2     1  UNL1       -0.2722
     11 C         142.7639  140.1555  157.4879 C.3     1  UNL1        0.1751
     12 C         145.9927  142.2668  156.3754 C.3     1  UNL1        0.1935
     13 C         146.3334  142.6167  154.9572 C.3     1  UNL1        0.0711
     14 C         147.7788  142.7476  155.3368 C.3     1  UNL1        0.1457
     15 O         147.4379  142.3976  156.7550 O.3     1  UNL1       -0.3469
     16 C         141.9788  140.8951  158.5302 C.2     1  UNL1        0.2485
     17 O         140.6438  141.4855  158.1852 O.2     1  UNL1       -0.2726
     18 N         142.5288  141.0444  159.9178 N.am    1  UNL1       -0.2823
     19 H         143.4050  140.6569  160.1443 H       1  UNL1        0.1549
     20 C         141.7437  141.7841  160.9602 C.ar    1  UNL1        0.0503
     21 C         141.8036  143.2816  161.0219 C.ar    1  UNL1        0.0144
     22 C         141.0186  144.0213  162.0643 C.ar    1  UNL1       -0.0002
     23 C         140.1736  143.2635  163.0449 C.ar    1  UNL1        0.0182
     24 C         140.1136  141.7660  162.9832 C.ar    1  UNL1       -0.0002
     25 C         140.8987  141.0263  161.9408 C.ar    1  UNL1        0.0144
     26 C         139.3885  144.0032  164.0873 C.3     1  UNL1        0.2827
     27 O         138.4538  144.5052  163.0271 O.3     1  UNL1       -0.3692
     28 H         138.7309  144.1625  162.1630 H       1  UNL1        0.2112
     29 C         138.6034  144.7428  165.1297 C.3     1  UNL1        0.4311
     30 F         137.8184  145.4825  166.1721 F       1  UNL1       -0.1669
     31 F         137.4184  143.8633  164.8612 F       1  UNL1       -0.1669
     32 F         139.2415  145.3115  165.3621 F       1  UNL1       -0.1669
     33 C         140.3232  143.5011  165.1476 C.3     1  UNL1        0.4311
     34 F         141.2580  142.9990  166.2078 F       1  UNL1       -0.1669
     35 F         141.0272  143.9821  164.9075 F       1  UNL1       -0.1669
     36 F         139.4954  142.5234  165.9279 F       1  UNL1       -0.1669
     37 S         142.1800  134.9073  154.6912 S.O2    1  UNL1        0.0603
     38 O         142.2923  135.6424  153.3886 O.2     1  UNL1       -0.1530
     39 O         142.0676  134.1722  155.9939 O.2     1  UNL1       -0.1530
     40 C         142.9894  132.4636  154.3406 C.3     1  UNL1        0.1102
     41 N         142.0992  133.6059  153.9499 N.3     1  UNL1       -0.1779
     42 H         141.1387  133.2748  154.0400 H       1  UNL1        0.1488
@<TRIPOS>BOND
     1    40    41    1
     2    41    37    1
     3    37    38    2
     4    37    39    2
     5    37     1    1
     6     1     2   ar
     7     2     3   ar
     8     3     4   ar
     9     4     5   ar
    10     5     6   ar
    11     5     7    1
    12     7     8    1
    13     8     9   am
    14     9    10    2
    15     9    12    1
    16    12    13    1
    17    13    14    1
    18    14    15    1
    19     8    11    1
    20    11    16    1
    21    16    17    2
    22    16    18   am
    23    18    20    1
    24    20    21   ar
    25    21    22   ar
    26    22    23   ar
    27    23    26    1
    28    26    27    1
    29    26    29    1
    30    29    30    1
    31    29    31    1
    32    29    32    1
    33    26    33    1
    34    33    34    1
    35    33    35    1
    36    33    36    1
    37    23    24   ar
    38    24    25   ar
    39     6     1   ar
    40    15    12    1
    41    25    20   ar
    42    11     4    1
    43    41    42    1
    44    18    19    1
    45    27    28    1
@<TRIPOS>MOLECULE
*****
 42 45 0 0 0
SMALL
GASTEIGER

@<TRIPOS>ATOM
      1 C         142.9239  137.7499  157.0911 C.ar    1  UNL1        0.1217
      2 C         142.8631  137.2993  158.5205 C.ar    1  UNL1        0.0196
      3 C         142.5677  138.2900  159.6073 C.ar    1  UNL1       -0.0011
      4 C         142.3331  139.7314  159.2647 C.ar    1  UNL1        0.0022
      5 C         142.3939  140.1820  157.8354 C.ar    1  UNL1       -0.0029
      6 C         142.6893  139.1913  156.7485 C.ar    1  UNL1        0.0170
      7 C         142.1216  141.6568  157.8022 C.3     1  UNL1        0.1207
      8 N         141.8926  142.1176  159.2112 N.am    1  UNL1       -0.2635
      9 C         141.5865  143.5218  159.6409 C.2     1  UNL1        0.2537
     10 O         141.3809  143.8336  161.0936 O.2     1  UNL1       -0.2722
     11 C         142.0232  140.9276  160.1151 C.3     1  UNL1        0.1751
     12 C         141.4862  144.6142  158.6179 C.3     1  UNL1        0.1935
     13 C         140.3618  145.2655  157.8686 C.3     1  UNL1        0.0711
     14 C         141.3443  146.1590  157.1710 C.3     1  UNL1        0.1457
     15 O         142.4686  145.5076  157.9204 O.3     1  UNL1       -0.3469
     16 C         141.8708  140.9329  161.6073 C.2     1  UNL1        0.2485
     17 O         140.6593  140.3147  162.2397 O.2     1  UNL1       -0.2726
     18 N         142.9300  141.5564  162.4672 N.am    1  UNL1       -0.2823
     19 H         143.7252  141.9622  162.0521 H       1  UNL1        0.1549
     20 C         142.7776  141.5617  163.9594 C.ar    1  UNL1        0.0503
     21 C         142.1976  142.7604  164.6498 C.ar    1  UNL1        0.0144
     22 C         142.0452  142.7657  166.1420 C.ar    1  UNL1       -0.0002
     23 C         142.4728  141.5724  166.9439 C.ar    1  UNL1        0.0182
     24 C         143.0529  140.3737  166.2535 C.ar    1  UNL1       -0.0002
     25 C         143.2053  140.3684  164.7612 C.ar    1  UNL1        0.0144
     26 C         142.3204  141.5777  168.4361 C.3     1  UNL1        0.2827
     27 O         143.4351  142.5754  168.5464 O.3     1  UNL1       -0.3692
     28 H         143.7683  142.7872  167.6604 H       1  UNL1        0.2112
     29 C         142.1680  141.5830  169.9283 C.3     1  UNL1        0.4311
     30 F         142.0156  141.5883  171.4205 F       1  UNL1       -0.1669
     31 F         143.5414  140.9968  170.0707 F       1  UNL1       -0.1669
     32 F         141.3521  141.9269  169.9523 F       1  UNL1       -0.1669
     33 C         141.2058  140.5800  168.3258 C.3     1  UNL1        0.4311
     34 F         140.0911  139.5824  168.2155 F       1  UNL1       -0.1669
     35 F         140.6127  141.1215  167.9522 F       1  UNL1       -0.1669
     36 F         141.7850  139.3232  168.9046 F       1  UNL1       -0.1669
     37 S         143.2193  136.7592  156.0043 S.O2    1  UNL1        0.0603
     38 O         141.9377  136.0422  156.3095 O.2     1  UNL1       -0.1530
     39 O         144.5010  137.4762  155.6990 O.2     1  UNL1       -0.1530
     40 C         142.9865  134.3680  155.0153 C.3     1  UNL1        0.1102
     41 N         143.5148  135.7685  154.9175 N.3     1  UNL1       -0.1779
     42 H         143.1462  136.1624  154.0518 H       1  UNL1        0.1488
@<TRIPOS>BOND
     1    40    41    1
     2    41    37    1
     3    37    38    2
     4    37    39    2
     5    37     1    1
     6     1     2   ar
     7     2     3   ar
     8     3     4   ar
     9     4     5   ar
    10     5     6   ar
    11     5     7    1
    12     7     8    1
    13     8     9   am
    14     9    10    2
    15     9    12    1
    16    12    13    1
    17    13    14    1
    18    14    15    1
    19     8    11    1
    20    11    16    1
    21    16    17    2
    22    16    18   am
    23    18    20    1
    24    20    21   ar
    25    21    22   ar
    26    22    23   ar
    27    23    26    1
    28    26    27    1
    29    26    29    1
    30    29    30    1
    31    29    31    1
    32    29    32    1
    33    26    33    1
    34    33    34    1
    35    33    35    1
    36    33    36    1
    37    23    24   ar
    38    24    25   ar
    39     6     1   ar
    40    15    12    1
    41    25    20   ar
    42    11     4    1
    43    41    42    1
    44    18    19    1
    45    27    28    1
@<TRIPOS>MOLECULE
*****
 42 45 0 0 0
SMALL
GASTEIGER

@<TRIPOS>ATOM
      1 C         145.4683  141.0847  155.2853 C.ar    1  UNL1        0.1217
      2 C         145.4429  141.1621  156.7830 C.ar    1  UNL1        0.0196
      3 C         144.3031  140.5549  157.5462 C.ar    1  UNL1       -0.0011
      4 C         143.1888  139.8704  156.8116 C.ar    1  UNL1        0.0022
      5 C         143.2142  139.7931  155.3138 C.ar    1  UNL1       -0.0029
      6 C         144.3539  140.4002  154.5507 C.ar    1  UNL1        0.0170
      7 C         141.9843  139.0599  154.8666 C.3     1  UNL1        0.1207
      8 N         141.1989  138.6842  156.0880 N.am    1  UNL1       -0.2635
      9 C         139.8974  137.9384  156.1045 C.2     1  UNL1        0.2537
     10 O         139.2248  137.6326  157.4098 O.2     1  UNL1       -0.2722
     11 C         141.9433  139.1851  157.2901 C.3     1  UNL1        0.1751
     12 C         139.2687  137.4985  154.8156 C.3     1  UNL1        0.1935
     13 C         137.9275  137.6875  154.1710 C.3     1  UNL1        0.0711
     14 C         138.3796  136.8765  152.9929 C.3     1  UNL1        0.1457
     15 O         139.7207  136.6875  153.6376 O.3     1  UNL1       -0.3469
     16 C         141.5170  139.0282  158.7196 C.2     1  UNL1        0.2485
     17 O         142.3362  138.1942  159.6594 O.2     1  UNL1       -0.2726
     18 N         140.2715  139.7055  159.2095 N.am    1  UNL1       -0.2823
     19 H         139.7337  140.2529  158.5927 H       1  UNL1        0.1549
     20 C         139.8452  139.5486  160.6391 C.ar    1  UNL1        0.0503
     21 C         140.2918  140.5441  161.6684 C.ar    1  UNL1        0.0144
     22 C         139.8655  140.3873  163.0980 C.ar    1  UNL1       -0.0002
     23 C         138.9927  139.2350  163.4983 C.ar    1  UNL1        0.0182
     24 C         138.5461  138.2395  162.4689 C.ar    1  UNL1       -0.0002
     25 C         138.9724  138.3963  161.0394 C.ar    1  UNL1        0.0144
     26 C         138.5664  139.0781  164.9279 C.3     1  UNL1        0.2827
     27 O         137.7250  140.3146  164.8126 O.3     1  UNL1       -0.3692
     28 H         137.8035  140.6767  163.9162 H       1  UNL1        0.2112
     29 C         138.1401  138.9213  166.3574 C.3     1  UNL1        0.4311
     30 F         137.7138  138.7644  167.7870 F       1  UNL1       -0.1669
     31 F         139.3844  139.6287  166.8061 F       1  UNL1       -0.1669
     32 F         137.3801  138.4954  166.1974 F       1  UNL1       -0.1669
     33 C         139.4078  137.8417  165.0431 C.3     1  UNL1        0.4311
     34 F         140.2492  136.6053  165.1583 F       1  UNL1       -0.1669
     35 F         138.7406  137.2608  165.0876 F       1  UNL1       -0.1669
     36 F         140.8162  138.3568  165.0111 F       1  UNL1       -0.1669
     37 S         146.6080  141.6918  154.5221 S.O2    1  UNL1        0.0603
     38 O         145.8427  141.5211  153.2434 O.2     1  UNL1       -0.1530
     39 O         147.3733  141.8625  155.8009 O.2     1  UNL1       -0.1530
     40 C         149.1542  142.1326  154.2530 C.3     1  UNL1        0.1102
     41 N         147.7477  142.2990  153.7590 N.3     1  UNL1       -0.1779
     42 H         147.7169  141.9032  152.8194 H       1  UNL1        0.1488
@<TRIPOS>BOND
     1    40    41    1
     2    41    37    1
     3    37    38    2
     4    37    39    2
     5    37     1    1
     6     1     2   ar
     7     2     3   ar
     8     3     4   ar
     9     4     5   ar
    10     5     6   ar
    11     5     7    1
    12     7     8    1
    13     8     9   am
    14     9    10    2
    15     9    12    1
    16    12    13    1
    17    13    14    1
    18    14    15    1
    19     8    11    1
    20    11    16    1
    21    16    17    2
    22    16    18   am
    23    18    20    1
    24    20    21   ar
    25    21    22   ar
    26    22    23   ar
    27    23    26    1
    28    26    27    1
    29    26    29    1
    30    29    30    1
    31    29    31    1
    32    29    32    1
    33    26    33    1
    34    33    34    1
    35    33    35    1
    36    33    36    1
    37    23    24   ar
    38    24    25   ar
    39     6     1   ar
    40    15    12    1
    41    25    20   ar
    42    11     4    1
    43    41    42    1
    44    18    19    1
    45    27    28    1
@<TRIPOS>MOLECULE
*****
 42 45 0 0 0
SMALL
GASTEIGER

@<TRIPOS>ATOM
      1 C         145.6868  142.0116  155.3772 C.ar    1  UNL1        0.1217
      2 C         145.5152  141.0998  156.5558 C.ar    1  UNL1        0.0196
      3 C         144.2809  141.1933  157.4029 C.ar    1  UNL1       -0.0011
      4 C         143.2181  142.1986  157.0714 C.ar    1  UNL1        0.0022
      5 C         143.3897  143.1104  155.8928 C.ar    1  UNL1       -0.0029
      6 C         144.6241  143.0168  155.0457 C.ar    1  UNL1        0.0170
      7 C         142.1814  143.9955  155.8116 C.3     1  UNL1        0.1207
      8 N         141.2630  143.6308  156.9402 N.am    1  UNL1       -0.2635
      9 C         139.9367  144.2652  157.2379 C.2     1  UNL1        0.2537
     10 O         139.1250  143.7928  158.4074 O.2     1  UNL1       -0.2722
     11 C         141.9038  142.5202  157.7187 C.3     1  UNL1        0.1751
     12 C         139.4222  145.3720  156.3660 C.3     1  UNL1        0.1935
     13 C         138.4324  145.4644  155.2428 C.3     1  UNL1        0.0711
     14 C         138.6946  146.9373  155.1329 C.3     1  UNL1        0.1457
     15 O         139.6844  146.8447  156.2562 O.3     1  UNL1       -0.3469
     16 C         141.3307  141.8491  158.9317 C.2     1  UNL1        0.2485
     17 O         140.8281  140.4387  158.8415 O.2     1  UNL1       -0.2726
     18 N         141.2603  142.5884  160.2350 N.am    1  UNL1       -0.2823
     19 H         141.5902  143.5141  160.2942 H       1  UNL1        0.1549
     20 C         140.6873  141.9173  161.4479 C.ar    1  UNL1        0.0503
     21 C         139.2674  142.1832  161.8518 C.ar    1  UNL1        0.0144
     22 C         138.6944  141.5121  163.0647 C.ar    1  UNL1       -0.0002
     23 C         139.5412  140.5751  163.8739 C.ar    1  UNL1        0.0182
     24 C         140.9611  140.3091  163.4700 C.ar    1  UNL1       -0.0002
     25 C         141.5342  140.9802  162.2570 C.ar    1  UNL1        0.0144
     26 C         138.9682  139.9039  165.0868 C.3     1  UNL1        0.2827
     27 O         139.1353  141.1734  165.8681 O.3     1  UNL1       -0.3692
     28 H         139.5206  141.8563  165.2970 H       1  UNL1        0.2112
     29 C         138.3952  139.2328  166.2997 C.3     1  UNL1        0.4311
     30 F         137.8222  138.5617  167.5127 F       1  UNL1       -0.1669
     31 F         139.7008  139.4127  167.0160 F       1  UNL1       -0.1669
     32 F         137.5888  139.0791  165.9672 F       1  UNL1       -0.1669
     33 C         138.8012  138.6345  164.3055 C.3     1  UNL1        0.4311
     34 F         138.6341  137.3650  163.5242 F       1  UNL1       -0.1669
     35 F         138.1619  138.9237  163.7649 F       1  UNL1       -0.1669
     36 F         139.7991  137.6971  164.9183 F       1  UNL1       -0.1669
     37 S         146.9212  141.9180  154.5300 S.O2    1  UNL1        0.0603
     38 O         147.7312  141.5833  155.7473 O.2     1  UNL1       -0.1530
     39 O         146.1111  142.2528  153.3128 O.2     1  UNL1       -0.1530
     40 C         149.5096  141.8222  154.3282 C.3     1  UNL1        0.1102
     41 N         148.1555  141.8245  153.6829 N.3     1  UNL1       -0.1779
     42 H         148.0819  140.9580  153.1499 H       1  UNL1        0.1488
@<TRIPOS>BOND
     1    40    41    1
     2    41    37    1
     3    37    38    2
     4    37    39    2
     5    37     1    1
     6     1     2   ar
     7     2     3   ar
     8     3     4   ar
     9     4     5   ar
    10     5     6   ar
    11     5     7    1
    12     7     8    1
    13     8     9   am
    14     9    10    2
    15     9    12    1
    16    12    13    1
    17    13    14    1
    18    14    15    1
    19     8    11    1
    20    11    16    1
    21    16    17    2
    22    16    18   am
    23    18    20    1
    24    20    21   ar
    25    21    22   ar
    26    22    23   ar
    27    23    26    1
    28    26    27    1
    29    26    29    1
    30    29    30    1
    31    29    31    1
    32    29    32    1
    33    26    33    1
    34    33    34    1
    35    33    35    1
    36    33    36    1
    37    23    24   ar
    38    24    25   ar
    39     6     1   ar
    40    15    12    1
    41    25    20   ar
    42    11     4    1
    43    41    42    1
    44    18    19    1
    45    27    28    1
