@<TRIPOS>MOLECULE
*****
 38 40 0 0 0
SMALL
GASTEIGER

@<TRIPOS>ATOM
      1 N         143.4744  139.0608  165.5788 N.3     1  UNL1       -0.2665
      2 C         144.7782  139.0813  164.8375 C.3     1  UNL1        0.1058
      3 C         144.9827  140.0448  163.7062 C.3     1  UNL1        0.1700
      4 O         144.4428  139.7267  162.3434 O.3     1  UNL1       -0.3793
      5 H         143.9924  138.8679  162.3663 H       1  UNL1        0.2106
      6 C         145.7271  141.3263  163.9377 C.3     1  UNL1        0.2358
      7 O         145.6416  142.4356  162.9317 O.3     1  UNL1       -0.4728
      8 C         142.0069  145.0859  162.8084 C.ar    1  UNL1        0.0646
      9 C         142.3219  144.1904  161.6470 C.ar    1  UNL1        0.0190
     10 C         143.5334  143.3070  161.6881 C.ar    1  UNL1        0.0382
     11 C         144.4300  143.3190  162.8906 C.ar    1  UNL1        0.1388
     12 C         144.1151  144.2146  164.0519 C.ar    1  UNL1        0.0382
     13 C         142.9035  145.0980  164.0108 C.ar    1  UNL1        0.0190
     14 N         140.7954  145.9694  162.7672 N.pl3   1  UNL1       -0.2187
     15 H         140.9000  146.9483  162.7607 H       1  UNL1        0.1734
     16 C         138.0536  144.7534  162.7049 C.3     1  UNL1        0.1996
     17 S         139.4245  145.3614  162.7361 S.O2    1  UNL1        0.0558
     18 O         139.1798  145.9820  161.3926 O.2     1  UNL1       -0.1544
     19 O         139.6693  144.7407  164.0795 O.2     1  UNL1       -0.1544
     20 C         143.0830  140.2248  166.4402 C.3     1  UNL1        0.0771
     21 C         142.5316  141.4705  165.8123 C.3     1  UNL1        0.0437
     22 C         141.2106  141.4313  165.1028 C.ar    1  UNL1       -0.0199
     23 C         139.9367  141.3694  165.8924 C.ar    1  UNL1       -0.0033
     24 C         138.6158  141.3302  165.1829 C.ar    1  UNL1        0.0119
     25 C         138.5686  141.3530  163.6838 C.ar    1  UNL1        0.0682
     26 CL        137.2475  141.3138  162.9743 Cl      1  UNL1       -0.0814
     27 C         139.8424  141.4149  162.8942 C.ar    1  UNL1        0.0679
     28 CL        139.7953  141.4377  161.3952 Cl      1  UNL1       -0.0814
     29 C         141.1634  141.4541  163.6038 C.ar    1  UNL1        0.0080
     30 C         142.5618  137.8763  165.4587 C.3     1  UNL1        0.0993
     31 C         141.4705  137.8716  164.4297 C.ar    1  UNL1       -0.0031
     32 C         140.0355  137.7876  164.8586 C.ar    1  UNL1       -0.0027
     33 C         138.9442  137.7829  163.8296 C.ar    1  UNL1        0.0028
     34 C         139.2878  137.8623  162.3716 C.ar    1  UNL1        0.0366
     35 C         140.7227  137.9463  161.9427 C.ar    1  UNL1        0.1334
     36 O         141.0662  138.0256  160.4848 O.3     1  UNL1       -0.5055
     37 C         141.8140  137.9510  162.9717 C.ar    1  UNL1        0.0337
     38 H         140.3845  138.0227  159.8420 H       1  UNL1        0.2922
@<TRIPOS>BOND
     1    16    17    1
     2    17    18    2
     3    17    19    2
     4    17    14    1
     5    14     8    1
     6     8     9   ar
     7     9    10   ar
     8    10    11   ar
     9    11     7    1
    10     7     6    1
    11     6     3    1
    12     3     4    1
    13     3     2    1
    14     2     1    1
    15     1    20    1
    16    20    21    1
    17    21    22    1
    18    22    23   ar
    19    23    24   ar
    20    24    25   ar
    21    25    26    1
    22    25    27   ar
    23    27    28    1
    24    27    29   ar
    25     1    30    1
    26    30    31    1
    27    31    32   ar
    28    32    33   ar
    29    33    34   ar
    30    34    35   ar
    31    35    36    1
    32    35    37   ar
    33    11    12   ar
    34    12    13   ar
    35    13     8   ar
    36    29    22   ar
    37    37    31   ar
    38    14    15    1
    39     4     5    1
    40    36    38    1
@<TRIPOS>MOLECULE
*****
 38 40 0 0 0
SMALL
GASTEIGER

@<TRIPOS>ATOM
      1 N         140.5162  137.7455  162.1468 N.3     1  UNL1       -0.2665
      2 C         141.7714  137.7168  161.3261 C.3     1  UNL1        0.1058
      3 C         143.0564  138.2329  161.9027 C.3     1  UNL1        0.1700
      4 O         144.3418  137.5057  161.6402 O.3     1  UNL1       -0.3793
      5 H         144.1667  136.7296  161.0853 H       1  UNL1        0.2106
      6 C         143.0560  139.4763  162.7419 C.3     1  UNL1        0.2358
      7 O         144.0224  139.6127  163.8809 O.3     1  UNL1       -0.4728
      8 C         142.5284  140.7205  167.9786 C.ar    1  UNL1        0.0646
      9 C         142.8260  139.2873  167.6509 C.ar    1  UNL1        0.0190
     10 C         143.3239  138.9180  166.2850 C.ar    1  UNL1        0.0382
     11 C         143.5244  139.9819  165.2468 C.ar    1  UNL1        0.1388
     12 C         143.2268  141.4151  165.5745 C.ar    1  UNL1        0.0382
     13 C         142.7289  141.7844  166.9404 C.ar    1  UNL1        0.0190
     14 N         142.0305  141.0898  169.3445 N.pl3   1  UNL1       -0.2187
     15 H         142.1697  140.4762  170.1017 H       1  UNL1        0.1734
     16 C         140.6102  143.6980  169.7688 C.3     1  UNL1        0.1996
     17 S         141.3204  142.3939  169.5567 S.O2    1  UNL1        0.0558
     18 O         140.0556  141.7927  169.0192 O.2     1  UNL1       -0.1544
     19 O         142.5851  142.9951  170.0941 O.2     1  UNL1       -0.1544
     20 C         139.2474  138.2871  161.5580 C.3     1  UNL1        0.0771
     21 C         139.2005  139.6955  161.0439 C.3     1  UNL1        0.0437
     22 C         138.9596  140.8325  161.9923 C.ar    1  UNL1       -0.0199
     23 C         137.6247  140.9825  162.6596 C.ar    1  UNL1       -0.0033
     24 C         137.3838  142.1195  163.6079 C.ar    1  UNL1        0.0119
     25 C         138.4780  143.1063  163.8889 C.ar    1  UNL1        0.0682
     26 CL        138.2371  144.2433  164.8372 Cl      1  UNL1       -0.0814
     27 C         139.8129  142.9563  163.2216 C.ar    1  UNL1        0.0679
     28 CL        140.9070  143.9432  163.5025 Cl      1  UNL1       -0.0814
     29 C         140.0537  141.8193  162.2733 C.ar    1  UNL1        0.0080
     30 C         140.5298  137.2324  163.5563 C.3     1  UNL1        0.0993
     31 C         139.7952  137.9760  164.6322 C.ar    1  UNL1       -0.0031
     32 C         140.1426  139.4051  164.9273 C.ar    1  UNL1       -0.0027
     33 C         139.4081  140.1486  166.0032 C.ar    1  UNL1        0.0028
     34 C         138.3261  139.4631  166.7840 C.ar    1  UNL1        0.0366
     35 C         137.9788  138.0340  166.4888 C.ar    1  UNL1        0.1334
     36 O         136.8969  137.3486  167.2695 O.3     1  UNL1       -0.5055
     37 C         138.7133  137.2905  165.4129 C.ar    1  UNL1        0.0337
     38 H         136.4380  137.8131  167.9416 H       1  UNL1        0.2922
@<TRIPOS>BOND
     1    16    17    1
     2    17    18    2
     3    17    19    2
     4    17    14    1
     5    14     8    1
     6     8     9   ar
     7     9    10   ar
     8    10    11   ar
     9    11     7    1
    10     7     6    1
    11     6     3    1
    12     3     4    1
    13     3     2    1
    14     2     1    1
    15     1    20    1
    16    20    21    1
    17    21    22    1
    18    22    23   ar
    19    23    24   ar
    20    24    25   ar
    21    25    26    1
    22    25    27   ar
    23    27    28    1
    24    27    29   ar
    25     1    30    1
    26    30    31    1
    27    31    32   ar
    28    32    33   ar
    29    33    34   ar
    30    34    35   ar
    31    35    36    1
    32    35    37   ar
    33    11    12   ar
    34    12    13   ar
    35    13     8   ar
    36    29    22   ar
    37    37    31   ar
    38    14    15    1
    39     4     5    1
    40    36    38    1
@<TRIPOS>MOLECULE
*****
 38 40 0 0 0
SMALL
GASTEIGER

@<TRIPOS>ATOM
      1 N         137.8418  142.6262  162.5132 N.3     1  UNL1       -0.2665
      2 C         137.4552  141.4088  163.2997 C.3     1  UNL1        0.1058
      3 C         137.8148  140.0433  162.7933 C.3     1  UNL1        0.1700
      4 O         137.1434  139.4969  161.5683 O.3     1  UNL1       -0.3793
      5 H         136.5093  140.1480  161.2295 H       1  UNL1        0.2106
      6 C         138.8458  139.2244  163.5119 C.3     1  UNL1        0.2358
      7 O         138.6505  138.8729  164.9570 O.3     1  UNL1       -0.4728
      8 C         141.8574  139.8418  167.9615 C.ar    1  UNL1        0.0646
      9 C         140.4249  140.1701  168.2613 C.ar    1  UNL1        0.0190
     10 C         139.3559  139.8472  167.2598 C.ar    1  UNL1        0.0382
     11 C         139.7195  139.1959  165.9585 C.ar    1  UNL1        0.1388
     12 C         141.1520  138.8675  165.6586 C.ar    1  UNL1        0.0382
     13 C         142.2210  139.1904  166.6601 C.ar    1  UNL1        0.0190
     14 N         142.9264  140.1647  168.9630 N.pl3   1  UNL1       -0.2187
     15 H         143.6539  139.5229  169.1307 H       1  UNL1        0.1734
     16 C         142.8476  142.7663  170.4549 C.3     1  UNL1        0.1996
     17 S         142.8870  141.4655  169.7089 S.O2    1  UNL1        0.0558
     18 O         142.4269  140.7448  170.9413 O.2     1  UNL1       -0.1544
     19 O         143.3472  142.1861  168.4765 O.2     1  UNL1       -0.1544
     20 C         137.6437  143.9923  163.1000 C.3     1  UNL1        0.0771
     21 C         138.4024  144.3980  164.3287 C.3     1  UNL1        0.0437
     22 C         139.8530  144.0417  164.4662 C.ar    1  UNL1       -0.0199
     23 C         140.2561  142.8264  165.2475 C.ar    1  UNL1       -0.0033
     24 C         141.7067  142.4702  165.3850 C.ar    1  UNL1        0.0119
     25 C         142.7542  143.3294  164.7411 C.ar    1  UNL1        0.0682
     26 CL        144.2048  142.9731  164.8785 Cl      1  UNL1       -0.0814
     27 C         142.3511  144.5447  163.9597 C.ar    1  UNL1        0.0679
     28 CL        143.3986  145.4038  163.3158 Cl      1  UNL1       -0.0814
     29 C         140.9006  144.9008  163.8223 C.ar    1  UNL1        0.0080
     30 C         138.4263  142.4774  161.1398 C.3     1  UNL1        0.0993
     31 C         139.8627  142.8327  160.8935 C.ar    1  UNL1       -0.0031
     32 C         140.9524  141.9044  161.3419 C.ar    1  UNL1       -0.0027
     33 C         142.3888  142.2597  161.0956 C.ar    1  UNL1        0.0028
     34 C         142.7354  143.5432  160.4011 C.ar    1  UNL1        0.0366
     35 C         141.6458  144.4714  159.9527 C.ar    1  UNL1        0.1334
     36 O         141.9925  145.7549  159.2582 O.3     1  UNL1       -0.5055
     37 C         140.2094  144.1161  160.1990 C.ar    1  UNL1        0.0337
     38 H         142.8897  145.9768  159.1044 H       1  UNL1        0.2922
@<TRIPOS>BOND
     1    16    17    1
     2    17    18    2
     3    17    19    2
     4    17    14    1
     5    14     8    1
     6     8     9   ar
     7     9    10   ar
     8    10    11   ar
     9    11     7    1
    10     7     6    1
    11     6     3    1
    12     3     4    1
    13     3     2    1
    14     2     1    1
    15     1    20    1
    16    20    21    1
    17    21    22    1
    18    22    23   ar
    19    23    24   ar
    20    24    25   ar
    21    25    26    1
    22    25    27   ar
    23    27    28    1
    24    27    29   ar
    25     1    30    1
    26    30    31    1
    27    31    32   ar
    28    32    33   ar
    29    33    34   ar
    30    34    35   ar
    31    35    36    1
    32    35    37   ar
    33    11    12   ar
    34    12    13   ar
    35    13     8   ar
    36    29    22   ar
    37    37    31   ar
    38    14    15    1
    39     4     5    1
    40    36    38    1
@<TRIPOS>MOLECULE
*****
 38 40 0 0 0
SMALL
GASTEIGER

@<TRIPOS>ATOM
      1 N         141.2545  143.9448  163.0703 N.3     1  UNL1       -0.2665
      2 C         140.8896  145.1419  162.2434 C.3     1  UNL1        0.1058
      3 C         139.4502  145.5326  162.0838 C.3     1  UNL1        0.1700
      4 O         139.0844  146.7229  161.2475 O.3     1  UNL1       -0.3793
      5 H         139.8902  147.1235  160.8852 H       1  UNL1        0.2106
      6 C         138.3765  144.7330  162.7605 C.3     1  UNL1        0.2358
      7 O         137.6094  143.7017  161.9872 O.3     1  UNL1       -0.4728
      8 C         138.3567  139.3249  162.7185 C.ar    1  UNL1        0.0646
      9 C         137.9907  140.2245  163.8616 C.ar    1  UNL1        0.0190
     10 C         137.7416  141.6834  163.6178 C.ar    1  UNL1        0.0382
     11 C         137.8585  142.2428  162.2310 C.ar    1  UNL1        0.1388
     12 C         138.2245  141.3432  161.0879 C.ar    1  UNL1        0.0382
     13 C         138.4736  139.8842  161.3316 C.ar    1  UNL1        0.0190
     14 N         138.6058  137.8659  162.9623 N.pl3   1  UNL1       -0.2187
     15 H         137.9612  137.1958  162.6388 H       1  UNL1        0.1734
     16 C         141.0682  136.9902  164.4353 C.3     1  UNL1        0.1996
     17 S         139.8369  137.4281  163.6988 S.O2    1  UNL1        0.0558
     18 O         140.5802  137.3323  162.3995 O.2     1  UNL1       -0.1544
     19 O         139.0937  137.5239  164.9981 O.2     1  UNL1       -0.1544
     20 C         141.3483  144.0645  164.5625 C.3     1  UNL1        0.0771
     21 C         140.4274  143.2676  165.4382 C.3     1  UNL1        0.0437
     22 C         140.9892  142.4100  166.5333 C.ar    1  UNL1       -0.0199
     23 C         142.4730  142.2286  166.6574 C.ar    1  UNL1       -0.0033
     24 C         143.0347  141.3711  167.7524 C.ar    1  UNL1        0.0119
     25 C         142.1126  140.6949  168.7233 C.ar    1  UNL1        0.0682
     26 CL        142.6744  139.8373  169.8183 Cl      1  UNL1       -0.0814
     27 C         140.6288  140.8763  168.5991 C.ar    1  UNL1        0.0679
     28 CL        139.7068  140.2001  169.5700 Cl      1  UNL1       -0.0814
     29 C         140.0671  141.7338  167.5041 C.ar    1  UNL1        0.0080
     30 C         141.5257  142.6281  162.4049 C.3     1  UNL1        0.0993
     31 C         142.6344  141.7498  162.9041 C.ar    1  UNL1       -0.0031
     32 C         142.3195  140.4085  163.4973 C.ar    1  UNL1       -0.0027
     33 C         143.4283  139.5302  163.9965 C.ar    1  UNL1        0.0028
     34 C         144.8520  139.9932  163.9024 C.ar    1  UNL1        0.0366
     35 C         145.1669  141.3344  163.3093 C.ar    1  UNL1        0.1334
     36 O         146.5905  141.7974  163.2153 O.3     1  UNL1       -0.5055
     37 C         144.0581  142.2127  162.8101 C.ar    1  UNL1        0.0337
     38 H         147.2831  141.2487  163.5271 H       1  UNL1        0.2922
@<TRIPOS>BOND
     1    16    17    1
     2    17    18    2
     3    17    19    2
     4    17    14    1
     5    14     8    1
     6     8     9   ar
     7     9    10   ar
     8    10    11   ar
     9    11     7    1
    10     7     6    1
    11     6     3    1
    12     3     4    1
    13     3     2    1
    14     2     1    1
    15     1    20    1
    16    20    21    1
    17    21    22    1
    18    22    23   ar
    19    23    24   ar
    20    24    25   ar
    21    25    26    1
    22    25    27   ar
    23    27    28    1
    24    27    29   ar
    25     1    30    1
    26    30    31    1
    27    31    32   ar
    28    32    33   ar
    29    33    34   ar
    30    34    35   ar
    31    35    36    1
    32    35    37   ar
    33    11    12   ar
    34    12    13   ar
    35    13     8   ar
    36    29    22   ar
    37    37    31   ar
    38    14    15    1
    39     4     5    1
    40    36    38    1
@<TRIPOS>MOLECULE
*****
 38 40 0 0 0
SMALL
GASTEIGER

@<TRIPOS>ATOM
      1 N         140.3912  139.9657  161.2898 N.3     1  UNL1       -0.2665
      2 C         140.0857  138.8378  162.2302 C.3     1  UNL1        0.1058
      3 C         141.1194  137.7846  162.4992 C.3     1  UNL1        0.1700
      4 O         141.9303  137.2236  161.3689 O.3     1  UNL1       -0.3793
      5 H         141.6628  137.6466  160.5380 H       1  UNL1        0.2106
      6 C         141.3423  137.2926  163.8986 C.3     1  UNL1        0.2358
      7 O         142.2259  138.0643  164.8332 O.3     1  UNL1       -0.4728
      8 C         140.4097  140.4753  168.1706 C.ar    1  UNL1        0.0646
      9 C         141.8733  140.1478  168.1924 C.ar    1  UNL1        0.0190
     10 C         142.4787  139.3442  167.0800 C.ar    1  UNL1        0.0382
     11 C         141.6205  138.8680  165.9457 C.ar    1  UNL1        0.1388
     12 C         140.1569  139.1954  165.9239 C.ar    1  UNL1        0.0382
     13 C         139.5515  139.9991  167.0363 C.ar    1  UNL1        0.0190
     14 N         139.8043  141.2790  169.2831 N.pl3   1  UNL1       -0.2187
     15 H         139.0004  140.9503  169.7468 H       1  UNL1        0.1734
     16 C         141.0432  143.8877  170.0952 C.3     1  UNL1        0.1996
     17 S         140.4237  142.5833  169.6892 S.O2    1  UNL1        0.0558
     18 O         140.1844  143.1259  168.3114 O.2     1  UNL1       -0.1544
     19 O         140.6631  142.0407  171.0670 O.2     1  UNL1       -0.1544
     20 C         139.3597  140.4156  160.2980 C.3     1  UNL1        0.0771
     21 C         138.1510  141.1719  160.7639 C.3     1  UNL1        0.0437
     22 C         138.2584  142.1163  161.9244 C.ar    1  UNL1       -0.0199
     23 C         137.6988  141.7287  163.2610 C.ar    1  UNL1       -0.0033
     24 C         137.8062  142.6730  164.4215 C.ar    1  UNL1        0.0119
     25 C         138.4733  144.0049  164.2454 C.ar    1  UNL1        0.0682
     26 CL        138.5807  144.9492  165.4059 Cl      1  UNL1       -0.0814
     27 C         139.0330  144.3925  162.9088 C.ar    1  UNL1        0.0679
     28 CL        139.7001  145.7244  162.7327 Cl      1  UNL1       -0.0814
     29 C         138.9255  143.4482  161.7483 C.ar    1  UNL1        0.0080
     30 C         141.7283  140.6438  161.3412 C.3     1  UNL1        0.0993
     31 C         141.9785  141.7336  162.3410 C.ar    1  UNL1       -0.0031
     32 C         141.5128  141.5731  163.7578 C.ar    1  UNL1       -0.0027
     33 C         141.7631  142.6629  164.7576 C.ar    1  UNL1        0.0028
     34 C         142.4791  143.9133  164.3406 C.ar    1  UNL1        0.0366
     35 C         142.9448  144.0738  162.9238 C.ar    1  UNL1        0.1334
     36 O         143.6608  145.3242  162.5068 O.3     1  UNL1       -0.5055
     37 C         142.6945  142.9840  161.9240 C.ar    1  UNL1        0.0337
     38 H         143.8171  146.0050  163.1314 H       1  UNL1        0.2922
@<TRIPOS>BOND
     1    16    17    1
     2    17    18    2
     3    17    19    2
     4    17    14    1
     5    14     8    1
     6     8     9   ar
     7     9    10   ar
     8    10    11   ar
     9    11     7    1
    10     7     6    1
    11     6     3    1
    12     3     4    1
    13     3     2    1
    14     2     1    1
    15     1    20    1
    16    20    21    1
    17    21    22    1
    18    22    23   ar
    19    23    24   ar
    20    24    25   ar
    21    25    26    1
    22    25    27   ar
    23    27    28    1
    24    27    29   ar
    25     1    30    1
    26    30    31    1
    27    31    32   ar
    28    32    33   ar
    29    33    34   ar
    30    34    35   ar
    31    35    36    1
    32    35    37   ar
    33    11    12   ar
    34    12    13   ar
    35    13     8   ar
    36    29    22   ar
    37    37    31   ar
    38    14    15    1
    39     4     5    1
    40    36    38    1
@<TRIPOS>MOLECULE
*****
 38 40 0 0 0
SMALL
GASTEIGER

@<TRIPOS>ATOM
      1 N         142.2870  141.3427  160.7783 N.3     1  UNL1       -0.2665
      2 C         143.7450  140.9923  160.7386 C.3     1  UNL1        0.1058
      3 C         144.7549  141.9142  161.3553 C.3     1  UNL1        0.1700
      4 O         145.4615  142.9287  160.5058 O.3     1  UNL1       -0.3793
      5 H         145.1515  142.8555  159.5896 H       1  UNL1        0.2106
      6 C         145.0583  141.8215  162.8213 C.3     1  UNL1        0.2358
      7 O         144.9987  140.4940  163.5171 O.3     1  UNL1       -0.4728
      8 C         142.4335  139.9862  167.1793 C.ar    1  UNL1        0.0646
      9 C         142.9640  138.7803  166.4621 C.ar    1  UNL1        0.0190
     10 C         143.8190  138.9496  165.2413 C.ar    1  UNL1        0.0382
     11 C         144.1436  140.3247  164.7378 C.ar    1  UNL1        0.1388
     12 C         143.6132  141.5306  165.4551 C.ar    1  UNL1        0.0382
     13 C         142.7581  141.3613  166.6758 C.ar    1  UNL1        0.0190
     14 N         141.5785  139.8169  168.4001 N.pl3   1  UNL1       -0.2187
     15 H         140.8532  139.1512  168.4046 H       1  UNL1        0.1734
     16 C         142.0783  141.5071  170.8277 C.3     1  UNL1        0.1996
     17 S         141.8284  140.6620  169.6139 S.O2    1  UNL1        0.0558
     18 O         140.5292  141.3756  169.3845 O.2     1  UNL1       -0.1544
     19 O         143.1276  139.9483  169.8432 O.2     1  UNL1       -0.1544
     20 C         141.2577  140.2576  160.8928 C.3     1  UNL1        0.0771
     21 C         141.4571  139.1344  161.8667 C.3     1  UNL1        0.0437
     22 C         140.6585  139.0914  163.1357 C.ar    1  UNL1       -0.0199
     23 C         140.1628  137.7787  163.6658 C.ar    1  UNL1       -0.0033
     24 C         139.3642  137.7357  164.9348 C.ar    1  UNL1        0.0119
     25 C         139.0613  139.0055  165.6737 C.ar    1  UNL1        0.0682
     26 CL        138.2627  138.9625  166.9428 Cl      1  UNL1       -0.0814
     27 C         139.5570  140.3182  165.1436 C.ar    1  UNL1        0.0679
     28 CL        139.2541  141.5880  165.8825 Cl      1  UNL1       -0.0814
     29 C         140.3556  140.3612  163.8746 C.ar    1  UNL1        0.0080
     30 C         141.8583  142.7783  160.7036 C.3     1  UNL1        0.0993
     31 C         141.1007  143.3949  161.8419 C.ar    1  UNL1       -0.0031
     32 C         141.8129  143.7446  163.1149 C.ar    1  UNL1       -0.0027
     33 C         141.0552  144.3612  164.2532 C.ar    1  UNL1        0.0028
     34 C         139.5853  144.6282  164.1184 C.ar    1  UNL1        0.0366
     35 C         138.8731  144.2786  162.8455 C.ar    1  UNL1        0.1334
     36 O         137.4033  144.5456  162.7108 O.3     1  UNL1       -0.5055
     37 C         139.6308  143.6619  161.7072 C.ar    1  UNL1        0.0337
     38 H         136.9300  144.9308  163.4218 H       1  UNL1        0.2922
@<TRIPOS>BOND
     1    16    17    1
     2    17    18    2
     3    17    19    2
     4    17    14    1
     5    14     8    1
     6     8     9   ar
     7     9    10   ar
     8    10    11   ar
     9    11     7    1
    10     7     6    1
    11     6     3    1
    12     3     4    1
    13     3     2    1
    14     2     1    1
    15     1    20    1
    16    20    21    1
    17    21    22    1
    18    22    23   ar
    19    23    24   ar
    20    24    25   ar
    21    25    26    1
    22    25    27   ar
    23    27    28    1
    24    27    29   ar
    25     1    30    1
    26    30    31    1
    27    31    32   ar
    28    32    33   ar
    29    33    34   ar
    30    34    35   ar
    31    35    36    1
    32    35    37   ar
    33    11    12   ar
    34    12    13   ar
    35    13     8   ar
    36    29    22   ar
    37    37    31   ar
    38    14    15    1
    39     4     5    1
    40    36    38    1
@<TRIPOS>MOLECULE
*****
 38 40 0 0 0
SMALL
GASTEIGER

@<TRIPOS>ATOM
      1 N         139.1892  138.6022  164.8679 N.3     1  UNL1       -0.2665
      2 C         138.9823  137.6480  163.7292 C.3     1  UNL1        0.1058
      3 C         140.0252  137.5205  162.6585 C.3     1  UNL1        0.1700
      4 O         141.2901  136.7615  162.9302 O.3     1  UNL1       -0.3793
      5 H         141.2739  136.4205  163.8382 H       1  UNL1        0.2106
      6 C         139.8030  138.1520  161.3162 C.3     1  UNL1        0.2358
      7 O         140.9482  138.7936  160.5904 O.3     1  UNL1       -0.4728
      8 C         141.6407  143.2254  160.9508 C.ar    1  UNL1        0.0646
      9 C         141.6722  142.3594  162.1751 C.ar    1  UNL1        0.0190
     10 C         141.4414  140.8821  162.0550 C.ar    1  UNL1        0.0382
     11 C         141.1791  140.2709  160.7106 C.ar    1  UNL1        0.1388
     12 C         141.1475  141.1369  159.4863 C.ar    1  UNL1        0.0382
     13 C         141.3784  142.6141  159.6064 C.ar    1  UNL1        0.0190
     14 N         141.8715  144.7026  161.0709 N.pl3   1  UNL1       -0.2187
     15 H         142.7765  145.0709  160.9496 H       1  UNL1        0.1734
     16 C         139.5757  146.5349  161.6808 C.3     1  UNL1        0.1996
     17 S         140.7236  145.6188  161.3758 S.O2    1  UNL1        0.0558
     18 O         141.1141  145.6260  162.8240 O.2     1  UNL1       -0.1544
     19 O         140.3332  145.6115  159.9276 O.2     1  UNL1       -0.1544
     20 C         140.4053  138.4798  165.7375 C.3     1  UNL1        0.0771
     21 C         141.0848  139.7130  166.2546 C.3     1  UNL1        0.0437
     22 C         142.3378  140.2107  165.5970 C.ar    1  UNL1       -0.0199
     23 C         143.1894  139.2700  164.7970 C.ar    1  UNL1       -0.0033
     24 C         144.4423  139.7676  164.1395 C.ar    1  UNL1        0.0119
     25 C         144.8437  141.2059  164.2818 C.ar    1  UNL1        0.0682
     26 CL        146.0967  141.7035  163.6242 Cl      1  UNL1       -0.0814
     27 C         143.9921  142.1466  165.0818 C.ar    1  UNL1        0.0679
     28 CL        144.3935  143.5848  165.2241 Cl      1  UNL1       -0.0814
     29 C         142.7392  141.6489  165.7393 C.ar    1  UNL1        0.0080
     30 C         138.1801  139.6789  165.1370 C.3     1  UNL1        0.0993
     31 C         138.1636  140.9192  164.2935 C.ar    1  UNL1       -0.0031
     32 C         137.7699  140.8382  162.8483 C.ar    1  UNL1       -0.0027
     33 C         137.7535  142.0785  162.0048 C.ar    1  UNL1        0.0028
     34 C         138.1308  143.3997  162.6065 C.ar    1  UNL1        0.0366
     35 C         138.5246  143.4807  164.0516 C.ar    1  UNL1        0.1334
     36 O         138.9019  144.8019  164.6533 O.3     1  UNL1       -0.5055
     37 C         138.5410  142.2404  164.8951 C.ar    1  UNL1        0.0337
     38 H         138.8916  145.5766  164.1264 H       1  UNL1        0.2922
@<TRIPOS>BOND
     1    16    17    1
     2    17    18    2
     3    17    19    2
     4    17    14    1
     5    14     8    1
     6     8     9   ar
     7     9    10   ar
     8    10    11   ar
     9    11     7    1
    10     7     6    1
    11     6     3    1
    12     3     4    1
    13     3     2    1
    14     2     1    1
    15     1    20    1
    16    20    21    1
    17    21    22    1
    18    22    23   ar
    19    23    24   ar
    20    24    25   ar
    21    25    26    1
    22    25    27   ar
    23    27    28    1
    24    27    29   ar
    25     1    30    1
    26    30    31    1
    27    31    32   ar
    28    32    33   ar
    29    33    34   ar
    30    34    35   ar
    31    35    36    1
    32    35    37   ar
    33    11    12   ar
    34    12    13   ar
    35    13     8   ar
    36    29    22   ar
    37    37    31   ar
    38    14    15    1
    39     4     5    1
    40    36    38    1
@<TRIPOS>MOLECULE
*****
 38 40 0 0 0
SMALL
GASTEIGER

@<TRIPOS>ATOM
      1 N         143.0841  139.9924  164.4124 N.3     1  UNL1       -0.2665
      2 C         144.5590  140.2627  164.3739 C.3     1  UNL1        0.1058
      3 C         145.0603  141.6521  164.1122 C.3     1  UNL1        0.1700
      4 O         146.2046  141.8710  163.1675 O.3     1  UNL1       -0.3793
      5 H         146.5012  141.0172  162.8155 H       1  UNL1        0.2106
      6 C         144.4171  142.8225  164.7952 C.3     1  UNL1        0.2358
      7 O         144.2135  144.1075  164.0487 O.3     1  UNL1       -0.4728
      8 C         140.9424  144.4301  160.9753 C.ar    1  UNL1        0.0646
      9 C         140.7771  145.0790  162.3175 C.ar    1  UNL1        0.0190
     10 C         141.8675  144.9715  163.3420 C.ar    1  UNL1        0.0382
     11 C         143.1231  144.2150  163.0242 C.ar    1  UNL1        0.1388
     12 C         143.2884  143.5662  161.6820 C.ar    1  UNL1        0.0382
     13 C         142.1981  143.6737  160.6576 C.ar    1  UNL1        0.0190
     14 N         139.8520  144.5377  159.9508 N.pl3   1  UNL1       -0.2187
     15 H         139.5329  145.4234  159.6628 H       1  UNL1        0.1734
     16 C         138.6438  142.0540  158.7798 C.3     1  UNL1        0.1996
     17 S         139.2479  143.2959  159.3653 S.O2    1  UNL1        0.0558
     18 O         138.3746  143.1498  160.5760 O.2     1  UNL1       -0.1544
     19 O         140.1212  143.4419  158.1546 O.2     1  UNL1       -0.1544
     20 C         142.5123  139.1015  165.4751 C.3     1  UNL1        0.0771
     21 C         142.9154  139.2888  166.9077 C.3     1  UNL1        0.0437
     22 C         142.1825  140.2730  167.7704 C.ar    1  UNL1       -0.0199
     23 C         142.7663  141.6320  168.0202 C.ar    1  UNL1       -0.0033
     24 C         142.0334  142.6161  168.8829 C.ar    1  UNL1        0.0119
     25 C         140.7166  142.2413  169.4958 C.ar    1  UNL1        0.0682
     26 CL        139.9837  143.2255  170.3586 Cl      1  UNL1       -0.0814
     27 C         140.1328  140.8824  169.2461 C.ar    1  UNL1        0.0679
     28 CL        138.8161  140.5075  169.8590 Cl      1  UNL1       -0.0814
     29 C         140.8657  139.8982  168.3834 C.ar    1  UNL1        0.0080
     30 C         142.1808  140.6131  163.3881 C.3     1  UNL1        0.0993
     31 C         140.8669  141.2035  163.8062 C.ar    1  UNL1       -0.0031
     32 C         140.7934  142.0899  165.0142 C.ar    1  UNL1       -0.0027
     33 C         139.4794  142.6803  165.4323 C.ar    1  UNL1        0.0028
     34 C         138.2389  142.3844  164.6425 C.ar    1  UNL1        0.0366
     35 C         138.3124  141.4980  163.4347 C.ar    1  UNL1        0.1334
     36 O         137.0720  141.2021  162.6449 O.3     1  UNL1       -0.5055
     37 C         139.6264  140.9076  163.0165 C.ar    1  UNL1        0.0337
     38 H         136.2512  141.5710  162.9061 H       1  UNL1        0.2922
@<TRIPOS>BOND
     1    16    17    1
     2    17    18    2
     3    17    19    2
     4    17    14    1
     5    14     8    1
     6     8     9   ar
     7     9    10   ar
     8    10    11   ar
     9    11     7    1
    10     7     6    1
    11     6     3    1
    12     3     4    1
    13     3     2    1
    14     2     1    1
    15     1    20    1
    16    20    21    1
    17    21    22    1
    18    22    23   ar
    19    23    24   ar
    20    24    25   ar
    21    25    26    1
    22    25    27   ar
    23    27    28    1
    24    27    29   ar
    25     1    30    1
    26    30    31    1
    27    31    32   ar
    28    32    33   ar
    29    33    34   ar
    30    34    35   ar
    31    35    36    1
    32    35    37   ar
    33    11    12   ar
    34    12    13   ar
    35    13     8   ar
    36    29    22   ar
    37    37    31   ar
    38    14    15    1
    39     4     5    1
    40    36    38    1
@<TRIPOS>MOLECULE
*****
 38 40 0 0 0
SMALL
GASTEIGER

@<TRIPOS>ATOM
      1 N         140.7413  139.9365  166.2538 N.3     1  UNL1       -0.2665
      2 C         141.6108  138.8248  165.7455 C.3     1  UNL1        0.1058
      3 C         143.0635  138.7795  166.1164 C.3     1  UNL1        0.1700
      4 O         143.4689  138.4443  167.5211 O.3     1  UNL1       -0.3793
      5 H         142.6762  138.2859  168.0573 H       1  UNL1        0.2106
      6 C         144.1109  139.0694  165.0825 C.3     1  UNL1        0.2358
      7 O         143.7140  139.2808  163.6516 O.3     1  UNL1       -0.4728
      8 C         142.7799  143.4238  162.1641 C.ar    1  UNL1        0.0646
      9 C         141.7886  142.3153  161.9679 C.ar    1  UNL1        0.0190
     10 C         142.1000  140.9343  162.4638 C.ar    1  UNL1        0.0382
     11 C         143.4026  140.6618  163.1557 C.ar    1  UNL1        0.1388
     12 C         144.3939  141.7703  163.3519 C.ar    1  UNL1        0.0382
     13 C         144.0825  143.1513  162.8560 C.ar    1  UNL1        0.0190
     14 N         142.4685  144.8049  161.6682 N.pl3   1  UNL1       -0.2187
     15 H         143.1791  145.3558  161.2673 H       1  UNL1        0.1734
     16 C         139.6804  145.8881  161.8983 C.3     1  UNL1        0.1996
     17 S         141.0745  145.3465  161.7833 S.O2    1  UNL1        0.0558
     18 O         140.9206  145.2668  160.2934 O.2     1  UNL1       -0.1544
     19 O         141.2284  145.4262  163.2732 O.2     1  UNL1       -0.1544
     20 C         139.3469  139.6436  166.7226 C.3     1  UNL1        0.0771
     21 C         138.2394  139.4778  165.7246 C.3     1  UNL1        0.0437
     22 C         138.2477  140.2772  164.4553 C.ar    1  UNL1       -0.0199
     23 C         138.0185  141.7588  164.5006 C.ar    1  UNL1       -0.0033
     24 C         138.0268  142.5582  163.2314 C.ar    1  UNL1        0.0119
     25 C         138.2642  141.8758  161.9169 C.ar    1  UNL1        0.0682
     26 CL        138.2724  142.6752  160.6476 Cl      1  UNL1       -0.0814
     27 C         138.4934  140.3941  161.8716 C.ar    1  UNL1        0.0679
     28 CL        138.7308  139.7118  160.5570 Cl      1  UNL1       -0.0814
     29 C         138.4851  139.5948  163.1408 C.ar    1  UNL1        0.0080
     30 C         141.2664  141.3411  166.2931 C.3     1  UNL1        0.0993
     31 C         141.5484  141.9997  167.6110 C.ar    1  UNL1       -0.0031
     32 C         140.4408  142.6753  168.3640 C.ar    1  UNL1       -0.0027
     33 C         140.7229  143.3339  169.6819 C.ar    1  UNL1        0.0028
     34 C         142.1124  143.3168  170.2467 C.ar    1  UNL1        0.0366
     35 C         143.2198  142.6412  169.4937 C.ar    1  UNL1        0.1334
     36 O         144.6093  142.6242  170.0585 O.3     1  UNL1       -0.5055
     37 C         142.9378  141.9827  168.1758 C.ar    1  UNL1        0.0337
     38 H         144.7855  143.0356  170.8817 H       1  UNL1        0.2922
@<TRIPOS>BOND
     1    16    17    1
     2    17    18    2
     3    17    19    2
     4    17    14    1
     5    14     8    1
     6     8     9   ar
     7     9    10   ar
     8    10    11   ar
     9    11     7    1
    10     7     6    1
    11     6     3    1
    12     3     4    1
    13     3     2    1
    14     2     1    1
    15     1    20    1
    16    20    21    1
    17    21    22    1
    18    22    23   ar
    19    23    24   ar
    20    24    25   ar
    21    25    26    1
    22    25    27   ar
    23    27    28    1
    24    27    29   ar
    25     1    30    1
    26    30    31    1
    27    31    32   ar
    28    32    33   ar
    29    33    34   ar
    30    34    35   ar
    31    35    36    1
    32    35    37   ar
    33    11    12   ar
    34    12    13   ar
    35    13     8   ar
    36    29    22   ar
    37    37    31   ar
    38    14    15    1
    39     4     5    1
    40    36    38    1
