@<TRIPOS>MOLECULE
*****
 42 46 0 0 0
SMALL
GASTEIGER

@<TRIPOS>ATOM
      1 C         140.9935  140.2347  165.2730 C.3     1  UNL1        0.0776
      2 C         142.5784  139.6482  163.2996 C.ar    1  UNL1        0.2211
      3 N         142.9255  139.7333  161.8428 N.ar    1  UNL1       -0.2119
      4 C         142.0350  140.4903  160.9025 C.ar    1  UNL1        0.0844
      5 C         142.3821  140.5754  159.4458 C.ar    1  UNL1        0.0193
      6 C         141.4916  141.3324  158.5056 C.ar    1  UNL1        0.0061
      7 C         140.2539  142.0041  159.0222 C.ar    1  UNL1        0.0537
      8 C         139.9068  141.9190  160.4790 C.ar    1  UNL1        0.0060
      9 C         140.7973  141.1621  161.4191 C.ar    1  UNL1        0.0177
     10 C         140.4501  141.0769  162.8760 C.ar    1  UNL1        0.0022
     11 C         141.3407  140.3199  163.8161 C.ar    1  UNL1        0.0373
     12 C         139.3634  142.7611  158.0819 C.2     1  UNL1        0.2491
     13 O         139.6533  144.1990  157.7685 O.2     1  UNL1       -0.2699
     14 N         138.1829  142.0801  157.4552 N.am    1  UNL1       -0.2726
     15 C         137.2924  142.8371  156.5150 C.3     1  UNL1        0.1152
     16 C         137.8930  140.6422  157.7687 C.3     1  UNL1        0.1152
     17 C         144.8832  139.3405  164.4585 C.3     1  UNL1        0.2542
     18 O         143.4689  138.8912  164.2398 O.3     1  UNL1       -0.4563
     19 C         139.8819  139.3362  165.7278 C.ar    1  UNL1       -0.0157
     20 C         139.6186  138.0462  165.0092 C.ar    1  UNL1       -0.0039
     21 C         138.5069  137.1477  165.4640 C.ar    1  UNL1       -0.0003
     22 C         137.6585  137.5392  166.6373 C.ar    1  UNL1       -0.0000
     23 C         137.9217  138.8293  167.3560 C.ar    1  UNL1       -0.0003
     24 C         139.0334  139.7278  166.9012 C.ar    1  UNL1       -0.0039
     25 C         141.7581  141.0480  166.2750 C.3     1  UNL1        0.1158
     26 O         142.3202  139.7898  166.8673 O.3     1  UNL1       -0.3820
     27 H         141.6211  139.1200  166.9268 H       1  UNL1        0.2107
     28 C         141.1960  142.3062  165.6826 C.ar    1  UNL1        0.0024
     29 C         139.7661  142.6814  165.9371 C.ar    1  UNL1       -0.0020
     30 C         139.2040  143.9396  165.3447 C.ar    1  UNL1       -0.0002
     31 C         140.0717  144.8227  164.4978 C.ar    1  UNL1       -0.0000
     32 C         141.5015  144.4476  164.2434 C.ar    1  UNL1       -0.0002
     33 C         142.3693  145.3307  163.3965 C.ar    1  UNL1       -0.0000
     34 C         143.7992  144.9555  163.1420 C.ar    1  UNL1       -0.0000
     35 C         144.3613  143.6973  163.7344 C.ar    1  UNL1       -0.0000
     36 C         143.4936  142.8142  164.5813 C.ar    1  UNL1       -0.0002
     37 C         142.0637  143.1893  164.8357 C.ar    1  UNL1       -0.0018
     38 C         142.5226  141.8613  167.2769 C.3     1  UNL1        0.0491
     39 C         142.5802  141.4241  168.7106 C.3     1  UNL1        0.0750
     40 N         141.3111  141.1643  169.4670 N.3     1  UNL1       -0.2702
     41 C         141.0761  139.8249  170.1000 C.3     1  UNL1        0.0897
     42 C         140.2771  142.2440  169.5904 C.3     1  UNL1        0.0897
@<TRIPOS>BOND
     1    17    18    1
     2    18     2    1
     3     2     3   ar
     4     3     4   ar
     5     4     5   ar
     6     5     6   ar
     7     6     7   ar
     8     7    12    1
     9    12    13    2
    10    12    14   am
    11    14    15    1
    12    14    16    1
    13     7     8   ar
    14     8     9   ar
    15     9    10   ar
    16    10    11   ar
    17    11     1    1
    18     1    19    1
    19    19    20   ar
    20    20    21   ar
    21    21    22   ar
    22    22    23   ar
    23    23    24   ar
    24     1    25    1
    25    25    26    1
    26    25    38    1
    27    38    39    1
    28    39    40    1
    29    40    41    1
    30    40    42    1
    31    25    28    1
    32    28    29   ar
    33    29    30   ar
    34    30    31   ar
    35    31    32   ar
    36    32    33   ar
    37    33    34   ar
    38    34    35   ar
    39    35    36   ar
    40    36    37   ar
    41    11     2   ar
    42    24    19   ar
    43    37    28   ar
    44     9     4   ar
    45    37    32   ar
    46    26    27    1
@<TRIPOS>MOLECULE
*****
 42 46 0 0 0
SMALL
GASTEIGER

@<TRIPOS>ATOM
      1 C         140.1654  140.8167  165.2887 C.3     1  UNL1        0.0776
      2 C         139.0997  142.3603  163.4910 C.ar    1  UNL1        0.2211
      3 N         139.0419  142.8620  162.0786 N.ar    1  UNL1       -0.2119
      4 C         139.9923  142.3218  161.0514 C.ar    1  UNL1        0.0844
      5 C         139.9345  142.8235  159.6390 C.ar    1  UNL1        0.0193
      6 C         140.8848  142.2833  158.6118 C.ar    1  UNL1        0.0061
      7 C         141.8928  141.2414  158.9970 C.ar    1  UNL1        0.0537
      8 C         141.9505  140.7397  160.4094 C.ar    1  UNL1        0.0060
      9 C         141.0003  141.2799  161.4366 C.ar    1  UNL1        0.0177
     10 C         141.0580  140.7782  162.8491 C.ar    1  UNL1        0.0022
     11 C         140.1077  141.3184  163.8763 C.ar    1  UNL1        0.0373
     12 C         142.8431  140.7012  157.9698 C.2     1  UNL1        0.2491
     13 O         142.4436  139.5314  157.1202 O.2     1  UNL1       -0.2699
     14 N         144.1929  141.3309  157.7921 N.am    1  UNL1       -0.2726
     15 C         145.1432  140.7907  156.7649 C.3     1  UNL1        0.1152
     16 C         144.5924  142.5008  158.6417 C.3     1  UNL1        0.1152
     17 C         137.9343  144.3802  164.6363 C.3     1  UNL1        0.2542
     18 O         138.1494  142.9004  164.5183 O.3     1  UNL1       -0.4563
     19 C         139.3560  139.6204  165.6933 C.ar    1  UNL1       -0.0157
     20 C         138.4818  139.6831  166.9106 C.ar    1  UNL1       -0.0039
     21 C         137.6724  138.4868  167.3152 C.ar    1  UNL1       -0.0003
     22 C         137.7372  137.2277  166.5026 C.ar    1  UNL1       -0.0000
     23 C         138.6114  137.1649  165.2852 C.ar    1  UNL1       -0.0003
     24 C         139.4208  138.3612  164.8806 C.ar    1  UNL1       -0.0039
     25 C         141.0324  141.5113  166.2965 C.3     1  UNL1        0.1158
     26 O         139.8858  142.4043  166.6676 O.3     1  UNL1       -0.3820
     27 H         139.4203  142.6836  165.8637 H       1  UNL1        0.2107
     28 C         142.1791  140.6183  165.9255 C.ar    1  UNL1        0.0024
     29 C         142.2096  139.1978  166.4065 C.ar    1  UNL1       -0.0020
     30 C         143.3563  138.3048  166.0355 C.ar    1  UNL1       -0.0002
     31 C         144.4724  138.8322  165.1834 C.ar    1  UNL1       -0.0000
     32 C         144.4419  140.2527  164.7024 C.ar    1  UNL1       -0.0002
     33 C         145.5581  140.7801  163.8503 C.ar    1  UNL1       -0.0000
     34 C         145.5275  142.2006  163.3693 C.ar    1  UNL1       -0.0000
     35 C         144.3809  143.0936  163.7403 C.ar    1  UNL1       -0.0000
     36 C         143.2647  142.5661  164.5924 C.ar    1  UNL1       -0.0002
     37 C         143.2952  141.1457  165.0734 C.ar    1  UNL1       -0.0018
     38 C         141.8995  142.2059  167.3043 C.3     1  UNL1        0.0491
     39 C         141.7793  141.8638  168.7598 C.3     1  UNL1        0.0750
     40 N         140.6094  142.3647  169.5539 N.3     1  UNL1       -0.2702
     41 C         140.4721  143.8299  169.8442 C.3     1  UNL1        0.0897
     42 C         139.5767  141.4004  170.0576 C.3     1  UNL1        0.0897
@<TRIPOS>BOND
     1    17    18    1
     2    18     2    1
     3     2     3   ar
     4     3     4   ar
     5     4     5   ar
     6     5     6   ar
     7     6     7   ar
     8     7    12    1
     9    12    13    2
    10    12    14   am
    11    14    15    1
    12    14    16    1
    13     7     8   ar
    14     8     9   ar
    15     9    10   ar
    16    10    11   ar
    17    11     1    1
    18     1    19    1
    19    19    20   ar
    20    20    21   ar
    21    21    22   ar
    22    22    23   ar
    23    23    24   ar
    24     1    25    1
    25    25    26    1
    26    25    38    1
    27    38    39    1
    28    39    40    1
    29    40    41    1
    30    40    42    1
    31    25    28    1
    32    28    29   ar
    33    29    30   ar
    34    30    31   ar
    35    31    32   ar
    36    32    33   ar
    37    33    34   ar
    38    34    35   ar
    39    35    36   ar
    40    36    37   ar
    41    11     2   ar
    42    24    19   ar
    43    37    28   ar
    44     9     4   ar
    45    37    32   ar
    46    26    27    1
@<TRIPOS>MOLECULE
*****
 42 46 0 0 0
SMALL
GASTEIGER

@<TRIPOS>ATOM
      1 C         141.6237  142.0070  164.2284 C.3     1  UNL1        0.0776
      2 C         143.5424  142.9976  162.7836 C.ar    1  UNL1        0.2211
      3 N         144.3159  143.0328  161.4990 N.ar    1  UNL1       -0.2119
      4 C         143.9442  142.1125  160.3742 C.ar    1  UNL1        0.0844
      5 C         144.7177  142.1477  159.0896 C.ar    1  UNL1        0.0193
      6 C         144.3461  141.2275  157.9649 C.ar    1  UNL1        0.0061
      7 C         143.2009  140.2720  158.1249 C.ar    1  UNL1        0.0537
      8 C         142.4274  140.2368  159.4096 C.ar    1  UNL1        0.0060
      9 C         142.7990  141.1570  160.5342 C.ar    1  UNL1        0.0177
     10 C         142.0255  141.1219  161.8190 C.ar    1  UNL1        0.0022
     11 C         142.3972  142.0422  162.9436 C.ar    1  UNL1        0.0373
     12 C         142.8292  139.3517  157.0002 C.2     1  UNL1        0.2491
     13 O         143.4714  138.0003  156.8935 O.2     1  UNL1       -0.2699
     14 N         141.8154  139.7827  155.9822 N.am    1  UNL1       -0.2726
     15 C         141.4438  138.8624  154.8574 C.3     1  UNL1        0.1152
     16 C         141.1733  141.1341  156.0889 C.3     1  UNL1        0.1152
     17 C         143.4462  145.3431  163.8971 C.3     1  UNL1        0.2542
     18 O         143.9140  143.9180  163.9084 O.3     1  UNL1       -0.4563
     19 C         140.2585  142.6245  164.2990 C.ar    1  UNL1       -0.0157
     20 C         140.0192  143.8169  165.1770 C.ar    1  UNL1       -0.0039
     21 C         138.6540  144.4344  165.2476 C.ar    1  UNL1       -0.0003
     22 C         137.5282  143.8596  164.4402 C.ar    1  UNL1       -0.0000
     23 C         137.7674  142.6671  163.5622 C.ar    1  UNL1       -0.0003
     24 C         139.1326  142.0496  163.4915 C.ar    1  UNL1       -0.0039
     25 C         142.2153  141.3543  165.4424 C.3     1  UNL1        0.1158
     26 O         142.6411  142.6974  165.9570 O.3     1  UNL1       -0.3820
     27 H         142.9994  143.2249  165.2261 H       1  UNL1        0.2107
     28 C         141.7896  140.0112  164.9279 C.ar    1  UNL1        0.0024
     29 C         142.6461  139.2823  163.9353 C.ar    1  UNL1       -0.0020
     30 C         142.2203  137.9392  163.4208 C.ar    1  UNL1       -0.0002
     31 C         140.9380  137.3250  163.8987 C.ar    1  UNL1       -0.0000
     32 C         140.0815  138.0538  164.8912 C.ar    1  UNL1       -0.0002
     33 C         138.7992  137.4396  165.3692 C.ar    1  UNL1       -0.0000
     34 C         137.9427  138.1685  166.3617 C.ar    1  UNL1       -0.0000
     35 C         138.3685  139.5116  166.8763 C.ar    1  UNL1       -0.0000
     36 C         139.6507  140.1258  166.3983 C.ar    1  UNL1       -0.0002
     37 C         140.5073  139.3970  165.4058 C.ar    1  UNL1       -0.0018
     38 C         142.8070  140.7017  166.6565 C.3     1  UNL1        0.0491
     39 C         142.8724  141.4511  167.9541 C.3     1  UNL1        0.0750
     40 N         141.6773  141.4881  168.8600 N.3     1  UNL1       -0.2702
     41 C         140.8328  142.7254  168.9371 C.3     1  UNL1        0.0897
     42 C         141.3269  140.2879  169.6886 C.3     1  UNL1        0.0897
@<TRIPOS>BOND
     1    17    18    1
     2    18     2    1
     3     2     3   ar
     4     3     4   ar
     5     4     5   ar
     6     5     6   ar
     7     6     7   ar
     8     7    12    1
     9    12    13    2
    10    12    14   am
    11    14    15    1
    12    14    16    1
    13     7     8   ar
    14     8     9   ar
    15     9    10   ar
    16    10    11   ar
    17    11     1    1
    18     1    19    1
    19    19    20   ar
    20    20    21   ar
    21    21    22   ar
    22    22    23   ar
    23    23    24   ar
    24     1    25    1
    25    25    26    1
    26    25    38    1
    27    38    39    1
    28    39    40    1
    29    40    41    1
    30    40    42    1
    31    25    28    1
    32    28    29   ar
    33    29    30   ar
    34    30    31   ar
    35    31    32   ar
    36    32    33   ar
    37    33    34   ar
    38    34    35   ar
    39    35    36   ar
    40    36    37   ar
    41    11     2   ar
    42    24    19   ar
    43    37    28   ar
    44     9     4   ar
    45    37    32   ar
    46    26    27    1
@<TRIPOS>MOLECULE
*****
 42 46 0 0 0
SMALL
GASTEIGER

@<TRIPOS>ATOM
      1 C         140.7078  141.0642  164.0424 C.3     1  UNL1        0.0776
      2 C         139.4130  141.8440  161.9292 C.ar    1  UNL1        0.2211
      3 N         139.3247  141.9858  160.4385 N.ar    1  UNL1       -0.2119
      4 C         140.4427  141.4895  159.5703 C.ar    1  UNL1        0.0844
      5 C         140.3543  141.6313  158.0797 C.ar    1  UNL1        0.0193
      6 C         141.4723  141.1349  157.2115 C.ar    1  UNL1        0.0061
      7 C         142.6786  140.4968  157.8340 C.ar    1  UNL1        0.0537
      8 C         142.7670  140.3551  159.3246 C.ar    1  UNL1        0.0060
      9 C         141.6491  140.8514  160.1928 C.ar    1  UNL1        0.0177
     10 C         141.7374  140.7096  161.6835 C.ar    1  UNL1        0.0022
     11 C         140.6194  141.2059  162.5517 C.ar    1  UNL1        0.0373
     12 C         143.7967  140.0005  156.9658 C.2     1  UNL1        0.2491
     13 O         143.8411  138.5597  156.5509 O.2     1  UNL1       -0.2699
     14 N         144.8701  140.9450  156.5124 N.am    1  UNL1       -0.2726
     15 C         145.9882  140.4486  155.6441 C.3     1  UNL1        0.1152
     16 C         144.8257  142.3858  156.9272 C.3     1  UNL1        0.1152
     17 C         137.8739  143.7784  162.7288 C.3     1  UNL1        0.2542
     18 O         138.2950  142.3404  162.7974 O.3     1  UNL1       -0.4563
     19 C         139.8869  140.0250  164.7469 C.ar    1  UNL1       -0.0157
     20 C         140.0991  138.5709  164.4460 C.ar    1  UNL1       -0.0039
     21 C         139.2782  137.5317  165.1505 C.ar    1  UNL1       -0.0003
     22 C         138.2452  137.9466  166.1559 C.ar    1  UNL1       -0.0000
     23 C         138.0331  139.4008  166.4568 C.ar    1  UNL1       -0.0003
     24 C         138.8539  140.4400  165.7523 C.ar    1  UNL1       -0.0039
     25 C         141.6170  141.9616  164.8285 C.3     1  UNL1        0.1158
     26 O         140.9414  143.1635  164.2378 O.3     1  UNL1       -0.3820
     27 H         140.7849  143.0142  163.2922 H       1  UNL1        0.2107
     28 C         142.2925  140.7597  165.4193 C.ar    1  UNL1        0.0024
     29 C         143.1577  139.8871  164.5590 C.ar    1  UNL1       -0.0020
     30 C         143.8332  138.6852  165.1498 C.ar    1  UNL1       -0.0002
     31 C         143.6435  138.3558  166.6008 C.ar    1  UNL1       -0.0000
     32 C         142.7783  139.2283  167.4611 C.ar    1  UNL1       -0.0002
     33 C         142.5887  138.8989  168.9121 C.ar    1  UNL1       -0.0000
     34 C         141.7234  139.7714  169.7724 C.ar    1  UNL1       -0.0000
     35 C         141.0479  140.9733  169.1816 C.ar    1  UNL1       -0.0000
     36 C         141.2376  141.3027  167.7306 C.ar    1  UNL1       -0.0002
     37 C         142.1028  140.4302  166.8703 C.ar    1  UNL1       -0.0018
     38 C         142.5261  142.8589  165.6147 C.3     1  UNL1        0.0491
     39 C         143.8790  143.2156  165.0739 C.3     1  UNL1        0.0750
     40 N         144.0185  143.6975  163.6602 N.3     1  UNL1       -0.2702
     41 C         143.5957  145.0902  163.2974 C.3     1  UNL1        0.0897
     42 C         144.5807  142.7866  162.6094 C.3     1  UNL1        0.0897
@<TRIPOS>BOND
     1    17    18    1
     2    18     2    1
     3     2     3   ar
     4     3     4   ar
     5     4     5   ar
     6     5     6   ar
     7     6     7   ar
     8     7    12    1
     9    12    13    2
    10    12    14   am
    11    14    15    1
    12    14    16    1
    13     7     8   ar
    14     8     9   ar
    15     9    10   ar
    16    10    11   ar
    17    11     1    1
    18     1    19    1
    19    19    20   ar
    20    20    21   ar
    21    21    22   ar
    22    22    23   ar
    23    23    24   ar
    24     1    25    1
    25    25    26    1
    26    25    38    1
    27    38    39    1
    28    39    40    1
    29    40    41    1
    30    40    42    1
    31    25    28    1
    32    28    29   ar
    33    29    30   ar
    34    30    31   ar
    35    31    32   ar
    36    32    33   ar
    37    33    34   ar
    38    34    35   ar
    39    35    36   ar
    40    36    37   ar
    41    11     2   ar
    42    24    19   ar
    43    37    28   ar
    44     9     4   ar
    45    37    32   ar
    46    26    27    1
@<TRIPOS>MOLECULE
*****
 42 46 0 0 0
SMALL
GASTEIGER

@<TRIPOS>ATOM
      1 C         140.1966  140.1740  164.1488 C.3     1  UNL1        0.0776
      2 C         141.3941  139.1584  162.0788 C.ar    1  UNL1        0.2211
      3 N         141.4552  138.9244  160.5985 N.ar    1  UNL1       -0.2119
      4 C         140.3797  139.4721  159.7076 C.ar    1  UNL1        0.0844
      5 C         140.4408  139.2381  158.2272 C.ar    1  UNL1        0.0193
      6 C         139.3654  139.7857  157.3364 C.ar    1  UNL1        0.0061
      7 C         138.2290  140.5673  157.9259 C.ar    1  UNL1        0.0537
      8 C         138.1679  140.8013  159.4063 C.ar    1  UNL1        0.0060
      9 C         139.2433  140.2537  160.2971 C.ar    1  UNL1        0.0177
     10 C         139.1822  140.4876  161.7775 C.ar    1  UNL1        0.0022
     11 C         140.2576  139.9400  162.6684 C.ar    1  UNL1        0.0373
     12 C         137.1536  141.1150  157.0350 C.2     1  UNL1        0.2491
     13 O         135.8812  140.3461  156.8356 O.2     1  UNL1       -0.2699
     14 N         137.3506  142.4314  156.3436 N.am    1  UNL1       -0.2726
     15 C         136.2752  142.9790  155.4527 C.3     1  UNL1        0.1152
     16 C         138.6230  143.2003  156.5431 C.3     1  UNL1        0.1152
     17 C         143.9083  138.7117  162.5578 C.3     1  UNL1        0.2542
     18 O         142.4695  138.6108  162.9698 O.3     1  UNL1       -0.4563
     19 C         139.3461  139.2911  165.0132 C.ar    1  UNL1       -0.0157
     20 C         139.0981  137.8662  164.6154 C.ar    1  UNL1       -0.0039
     21 C         138.2476  136.9833  165.4798 C.ar    1  UNL1       -0.0003
     22 C         137.6451  137.5253  166.7419 C.ar    1  UNL1       -0.0000
     23 C         137.8930  138.9502  167.1398 C.ar    1  UNL1       -0.0003
     24 C         138.7435  139.8331  166.2754 C.ar    1  UNL1       -0.0039
     25 C         140.9860  141.2908  164.7648 C.3     1  UNL1        0.1158
     26 O         141.9286  140.2919  165.3679 O.3     1  UNL1       -0.3820
     27 H         141.4236  139.5420  165.7193 H       1  UNL1        0.2107
     28 C         140.0434  142.2897  164.1617 C.ar    1  UNL1        0.0024
     29 C         138.6617  142.4510  164.7230 C.ar    1  UNL1       -0.0020
     30 C         137.7192  143.4499  164.1199 C.ar    1  UNL1       -0.0002
     31 C         138.1582  144.2875  162.9556 C.ar    1  UNL1       -0.0000
     32 C         139.5398  144.1262  162.3943 C.ar    1  UNL1       -0.0002
     33 C         139.9788  144.9638  161.2300 C.ar    1  UNL1       -0.0000
     34 C         141.3605  144.8025  160.6687 C.ar    1  UNL1       -0.0000
     35 C         142.3031  143.8036  161.2718 C.ar    1  UNL1       -0.0000
     36 C         141.8641  142.9660  162.4361 C.ar    1  UNL1       -0.0002
     37 C         140.4825  143.1273  162.9974 C.ar    1  UNL1       -0.0018
     38 C         141.7754  142.4076  165.3808 C.3     1  UNL1        0.0491
     39 C         143.1504  142.1456  165.9201 C.3     1  UNL1        0.0750
     40 N         144.3509  142.7089  165.2191 N.3     1  UNL1       -0.2702
     41 C         145.0710  141.8899  164.1892 C.3     1  UNL1        0.0897
     42 C         144.8314  144.0913  165.5480 C.3     1  UNL1        0.0897
@<TRIPOS>BOND
     1    17    18    1
     2    18     2    1
     3     2     3   ar
     4     3     4   ar
     5     4     5   ar
     6     5     6   ar
     7     6     7   ar
     8     7    12    1
     9    12    13    2
    10    12    14   am
    11    14    15    1
    12    14    16    1
    13     7     8   ar
    14     8     9   ar
    15     9    10   ar
    16    10    11   ar
    17    11     1    1
    18     1    19    1
    19    19    20   ar
    20    20    21   ar
    21    21    22   ar
    22    22    23   ar
    23    23    24   ar
    24     1    25    1
    25    25    26    1
    26    25    38    1
    27    38    39    1
    28    39    40    1
    29    40    41    1
    30    40    42    1
    31    25    28    1
    32    28    29   ar
    33    29    30   ar
    34    30    31   ar
    35    31    32   ar
    36    32    33   ar
    37    33    34   ar
    38    34    35   ar
    39    35    36   ar
    40    36    37   ar
    41    11     2   ar
    42    24    19   ar
    43    37    28   ar
    44     9     4   ar
    45    37    32   ar
    46    26    27    1
@<TRIPOS>MOLECULE
*****
 42 46 0 0 0
SMALL
GASTEIGER

@<TRIPOS>ATOM
      1 C         141.2229  140.7917  165.0746 C.3     1  UNL1        0.0776
      2 C         139.0903  139.7539  164.0137 C.ar    1  UNL1        0.2211
      3 N         138.2107  139.5300  162.8196 N.ar    1  UNL1       -0.2119
      4 C         138.5838  140.1202  161.4919 C.ar    1  UNL1        0.0844
      5 C         137.7042  139.8963  160.2978 C.ar    1  UNL1        0.0193
      6 C         138.0773  140.4865  158.9703 C.ar    1  UNL1        0.0061
      7 C         139.3302  141.3005  158.8369 C.ar    1  UNL1        0.0537
      8 C         140.2099  141.5243  160.0310 C.ar    1  UNL1        0.0060
      9 C         139.8367  140.9342  161.3586 C.ar    1  UNL1        0.0177
     10 C         140.7164  141.1580  162.5528 C.ar    1  UNL1        0.0022
     11 C         140.3432  140.5679  163.8803 C.ar    1  UNL1        0.0373
     12 C         139.7033  141.8906  157.5092 C.2     1  UNL1        0.2491
     13 O         139.2142  143.2575  157.1320 O.2     1  UNL1       -0.2699
     14 N         140.5656  141.1139  156.5589 N.am    1  UNL1       -0.2726
     15 C         140.9387  141.7041  155.2313 C.3     1  UNL1        0.1152
     16 C         141.0547  139.7470  156.9361 C.3     1  UNL1        0.1152
     17 C         138.6962  137.6746  165.5209 C.3     1  UNL1        0.2542
     18 O         138.7172  139.1637  165.3414 O.3     1  UNL1       -0.4563
     19 C         142.4643  139.9696  165.2562 C.ar    1  UNL1       -0.0157
     20 C         143.6106  140.1210  164.3006 C.ar    1  UNL1       -0.0039
     21 C         144.8520  139.2989  164.4823 C.ar    1  UNL1       -0.0003
     22 C         144.9472  138.3255  165.6195 C.ar    1  UNL1       -0.0000
     23 C         143.8009  138.1740  166.5751 C.ar    1  UNL1       -0.0003
     24 C         142.5595  138.9961  166.3935 C.ar    1  UNL1       -0.0039
     25 C         140.8611  141.8375  166.0871 C.3     1  UNL1        0.1158
     26 O         140.1772  140.7944  166.9202 O.3     1  UNL1       -0.3820
     27 H         139.6696  140.2019  166.3438 H       1  UNL1        0.2107
     28 C         141.5450  142.8807  165.2540 C.ar    1  UNL1        0.0024
     29 C         143.0359  143.0331  165.3184 C.ar    1  UNL1       -0.0020
     30 C         143.7198  144.0762  164.4853 C.ar    1  UNL1       -0.0002
     31 C         142.9129  144.9670  163.5878 C.ar    1  UNL1       -0.0000
     32 C         141.4221  144.8146  163.5234 C.ar    1  UNL1       -0.0002
     33 C         140.6152  145.7053  162.6258 C.ar    1  UNL1       -0.0000
     34 C         139.1243  145.5528  162.5615 C.ar    1  UNL1       -0.0000
     35 C         138.4404  144.5097  163.3946 C.ar    1  UNL1       -0.0000
     36 C         139.2473  143.6190  164.2921 C.ar    1  UNL1       -0.0002
     37 C         140.7381  143.7714  164.3565 C.ar    1  UNL1       -0.0018
     38 C         140.4993  142.8834  167.0996 C.3     1  UNL1        0.0491
     39 C         140.4361  142.5278  168.5555 C.3     1  UNL1        0.0750
     40 N         141.6195  141.8937  169.2247 N.3     1  UNL1       -0.2702
     41 C         141.4165  140.7838  170.2131 C.3     1  UNL1        0.0897
     42 C         143.0057  142.3694  168.9053 C.3     1  UNL1        0.0897
@<TRIPOS>BOND
     1    17    18    1
     2    18     2    1
     3     2     3   ar
     4     3     4   ar
     5     4     5   ar
     6     5     6   ar
     7     6     7   ar
     8     7    12    1
     9    12    13    2
    10    12    14   am
    11    14    15    1
    12    14    16    1
    13     7     8   ar
    14     8     9   ar
    15     9    10   ar
    16    10    11   ar
    17    11     1    1
    18     1    19    1
    19    19    20   ar
    20    20    21   ar
    21    21    22   ar
    22    22    23   ar
    23    23    24   ar
    24     1    25    1
    25    25    26    1
    26    25    38    1
    27    38    39    1
    28    39    40    1
    29    40    41    1
    30    40    42    1
    31    25    28    1
    32    28    29   ar
    33    29    30   ar
    34    30    31   ar
    35    31    32   ar
    36    32    33   ar
    37    33    34   ar
    38    34    35   ar
    39    35    36   ar
    40    36    37   ar
    41    11     2   ar
    42    24    19   ar
    43    37    28   ar
    44     9     4   ar
    45    37    32   ar
    46    26    27    1
@<TRIPOS>MOLECULE
*****
 42 46 0 0 0
SMALL
GASTEIGER

@<TRIPOS>ATOM
      1 C         141.7398  141.3672  163.1398 C.3     1  UNL1        0.0776
      2 C         143.6350  142.8341  162.1366 C.ar    1  UNL1        0.2211
      3 N         144.5659  143.1591  161.0062 N.ar    1  UNL1       -0.2119
      4 C         144.5325  142.3422  159.7486 C.ar    1  UNL1        0.0844
      5 C         145.4634  142.6672  158.6182 C.ar    1  UNL1        0.0193
      6 C         145.4300  141.8503  157.3606 C.ar    1  UNL1        0.0061
      7 C         144.4657  140.7084  157.2334 C.ar    1  UNL1        0.0537
      8 C         143.5348  140.3834  158.3638 C.ar    1  UNL1        0.0060
      9 C         143.5682  141.2003  159.6213 C.ar    1  UNL1        0.0177
     10 C         142.6373  140.8753  160.7518 C.ar    1  UNL1        0.0022
     11 C         142.6707  141.6922  162.0094 C.ar    1  UNL1        0.0373
     12 C         144.4324  139.8915  155.9758 C.2     1  UNL1        0.2491
     13 O         145.3715  138.7339  155.8082 O.2     1  UNL1       -0.2699
     14 N         143.4599  140.2322  154.8857 N.am    1  UNL1       -0.2726
     15 C         143.4266  139.4153  153.6281 C.3     1  UNL1        0.1152
     16 C         142.5208  141.3898  155.0532 C.3     1  UNL1        0.1152
     17 C         143.6449  145.1488  163.3165 C.3     1  UNL1        0.2542
     18 O         143.6684  143.6510  163.3942 O.3     1  UNL1       -0.4563
     19 C         142.2413  140.6007  164.3276 C.ar    1  UNL1       -0.0157
     20 C         142.3115  141.2623  165.6720 C.ar    1  UNL1       -0.0039
     21 C         142.8130  140.4958  166.8598 C.ar    1  UNL1       -0.0003
     22 C         143.2443  139.0677  166.7033 C.ar    1  UNL1       -0.0000
     23 C         143.1741  138.4061  165.3589 C.ar    1  UNL1       -0.0003
     24 C         142.6726  139.1725  164.1711 C.ar    1  UNL1       -0.0039
     25 C         140.3074  141.8087  163.0823 C.3     1  UNL1        0.1158
     26 O         140.7482  143.2422  163.1080 O.3     1  UNL1       -0.3820
     27 H         141.4669  143.3480  163.7508 H       1  UNL1        0.2107
     28 C         139.8666  140.3752  163.0567 C.ar    1  UNL1        0.0024
     29 C         139.9779  139.5788  161.7903 C.ar    1  UNL1       -0.0020
     30 C         139.5371  138.1453  161.7646 C.ar    1  UNL1       -0.0002
     31 C         138.9849  137.5081  163.0052 C.ar    1  UNL1       -0.0000
     32 C         138.8736  138.3043  164.2715 C.ar    1  UNL1       -0.0002
     33 C         138.3214  137.6671  165.5121 C.ar    1  UNL1       -0.0000
     34 C         138.2101  138.4635  166.7784 C.ar    1  UNL1       -0.0000
     35 C         138.6509  139.8970  166.8041 C.ar    1  UNL1       -0.0000
     36 C         139.2031  140.5342  165.5635 C.ar    1  UNL1       -0.0002
     37 C         139.3144  139.7379  164.2972 C.ar    1  UNL1       -0.0018
     38 C         138.8750  142.2502  163.0249 C.3     1  UNL1        0.0491
     39 C         138.4530  143.3013  162.0415 C.3     1  UNL1        0.0750
     40 N         138.9451  143.2445  160.6256 N.3     1  UNL1       -0.2702
     41 C         138.4504  142.1708  159.7022 C.3     1  UNL1        0.0897
     42 C         139.9318  144.2612  160.1331 C.3     1  UNL1        0.0897
@<TRIPOS>BOND
     1    17    18    1
     2    18     2    1
     3     2     3   ar
     4     3     4   ar
     5     4     5   ar
     6     5     6   ar
     7     6     7   ar
     8     7    12    1
     9    12    13    2
    10    12    14   am
    11    14    15    1
    12    14    16    1
    13     7     8   ar
    14     8     9   ar
    15     9    10   ar
    16    10    11   ar
    17    11     1    1
    18     1    19    1
    19    19    20   ar
    20    20    21   ar
    21    21    22   ar
    22    22    23   ar
    23    23    24   ar
    24     1    25    1
    25    25    26    1
    26    25    38    1
    27    38    39    1
    28    39    40    1
    29    40    41    1
    30    40    42    1
    31    25    28    1
    32    28    29   ar
    33    29    30   ar
    34    30    31   ar
    35    31    32   ar
    36    32    33   ar
    37    33    34   ar
    38    34    35   ar
    39    35    36   ar
    40    36    37   ar
    41    11     2   ar
    42    24    19   ar
    43    37    28   ar
    44     9     4   ar
    45    37    32   ar
    46    26    27    1
@<TRIPOS>MOLECULE
*****
 42 46 0 0 0
SMALL
GASTEIGER

@<TRIPOS>ATOM
      1 C         141.7137  142.0401  163.9279 C.3     1  UNL1        0.0776
      2 C         143.5350  142.8148  162.2447 C.ar    1  UNL1        0.2211
      3 N         143.9432  143.1754  160.8471 N.ar    1  UNL1       -0.2119
      4 C         142.9382  143.1218  159.7348 C.ar    1  UNL1        0.0844
      5 C         143.3463  143.4824  158.3372 C.ar    1  UNL1        0.0193
      6 C         142.3413  143.4288  157.2250 C.ar    1  UNL1        0.0061
      7 C         140.9281  143.0147  157.5104 C.ar    1  UNL1        0.0537
      8 C         140.5200  142.6541  158.9080 C.ar    1  UNL1        0.0060
      9 C         141.5250  142.7077  160.0202 C.ar    1  UNL1        0.0177
     10 C         141.1168  142.3471  161.4179 C.ar    1  UNL1        0.0022
     11 C         142.1218  142.4007  162.5301 C.ar    1  UNL1        0.0373
     12 C         139.9231  142.9611  156.3981 C.2     1  UNL1        0.2491
     13 O         139.5511  141.6431  155.7863 O.2     1  UNL1       -0.2699
     14 N         139.2902  144.2256  155.8977 N.am    1  UNL1       -0.2726
     15 C         138.2852  144.1720  154.7854 C.3     1  UNL1        0.1152
     16 C         139.6622  145.5437  156.5095 C.3     1  UNL1        0.1152
     17 C         145.6537  141.8649  163.4105 C.3     1  UNL1        0.2542
     18 O         144.5400  142.8684  163.3570 O.3     1  UNL1       -0.4563
     19 C         142.2206  140.7750  164.5544 C.ar    1  UNL1       -0.0157
     20 C         141.9037  139.4490  163.9289 C.ar    1  UNL1       -0.0039
     21 C         142.4106  138.1839  164.5555 C.ar    1  UNL1       -0.0003
     22 C         143.2344  138.2448  165.8075 C.ar    1  UNL1       -0.0000
     23 C         143.5513  139.5709  166.4331 C.ar    1  UNL1       -0.0003
     24 C         143.0444  140.8360  165.8065 C.ar    1  UNL1       -0.0039
     25 C         140.7987  142.9447  164.6989 C.3     1  UNL1        0.1158
     26 O         141.6985  144.1076  164.4024 O.3     1  UNL1       -0.3820
     27 H         142.6238  143.8335  164.4997 H       1  UNL1        0.2107
     28 C         139.8990  141.7817  164.9954 C.ar    1  UNL1        0.0024
     29 C         139.1134  141.1403  163.8902 C.ar    1  UNL1       -0.0020
     30 C         138.2136  139.9774  164.1867 C.ar    1  UNL1       -0.0002
     31 C         138.0994  139.4558  165.5885 C.ar    1  UNL1       -0.0000
     32 C         138.8849  140.0972  166.6937 C.ar    1  UNL1       -0.0002
     33 C         138.7706  139.5756  168.0954 C.ar    1  UNL1       -0.0000
     34 C         139.5562  140.2170  169.2007 C.ar    1  UNL1       -0.0000
     35 C         140.4559  141.3800  168.9042 C.ar    1  UNL1       -0.0000
     36 C         140.5702  141.9015  167.5024 C.ar    1  UNL1       -0.0002
     37 C         139.7847  141.2602  166.3972 C.ar    1  UNL1       -0.0018
     38 C         139.8837  143.8492  165.4700 C.3     1  UNL1        0.0491
     39 C         139.1217  144.9280  164.7591 C.3     1  UNL1        0.0750
     40 N         138.9033  144.8404  163.2776 N.3     1  UNL1       -0.2702
     41 C         137.8303  143.9471  162.7293 C.3     1  UNL1        0.0897
     42 C         139.7578  145.6460  162.3446 C.3     1  UNL1        0.0897
@<TRIPOS>BOND
     1    17    18    1
     2    18     2    1
     3     2     3   ar
     4     3     4   ar
     5     4     5   ar
     6     5     6   ar
     7     6     7   ar
     8     7    12    1
     9    12    13    2
    10    12    14   am
    11    14    15    1
    12    14    16    1
    13     7     8   ar
    14     8     9   ar
    15     9    10   ar
    16    10    11   ar
    17    11     1    1
    18     1    19    1
    19    19    20   ar
    20    20    21   ar
    21    21    22   ar
    22    22    23   ar
    23    23    24   ar
    24     1    25    1
    25    25    26    1
    26    25    38    1
    27    38    39    1
    28    39    40    1
    29    40    41    1
    30    40    42    1
    31    25    28    1
    32    28    29   ar
    33    29    30   ar
    34    30    31   ar
    35    31    32   ar
    36    32    33   ar
    37    33    34   ar
    38    34    35   ar
    39    35    36   ar
    40    36    37   ar
    41    11     2   ar
    42    24    19   ar
    43    37    28   ar
    44     9     4   ar
    45    37    32   ar
    46    26    27    1
@<TRIPOS>MOLECULE
*****
 42 46 0 0 0
SMALL
GASTEIGER

@<TRIPOS>ATOM
      1 C         140.8989  141.9924  163.1254 C.3     1  UNL1        0.0776
      2 C         141.1460  143.1160  160.7959 C.ar    1  UNL1        0.2211
      3 N         141.1699  143.0124  159.2997 N.ar    1  UNL1       -0.2119
      4 C         140.9707  141.6817  158.6367 C.ar    1  UNL1        0.0844
      5 C         140.9946  141.5782  157.1405 C.ar    1  UNL1        0.0193
      6 C         140.7953  140.2475  156.4775 C.ar    1  UNL1        0.0061
      7 C         140.5721  139.0204  157.3108 C.ar    1  UNL1        0.0537
      8 C         140.5482  139.1239  158.8070 C.ar    1  UNL1        0.0060
      9 C         140.7475  140.4546  159.4699 C.ar    1  UNL1        0.0177
     10 C         140.7236  140.5581  160.9662 C.ar    1  UNL1        0.0022
     11 C         140.9228  141.8888  161.6291 C.ar    1  UNL1        0.0373
     12 C         140.3729  137.6896  156.6477 C.2     1  UNL1        0.2491
     13 O         138.9892  137.2208  156.3077 O.2     1  UNL1       -0.2699
     14 N         141.5573  136.8278  156.3248 N.am    1  UNL1       -0.2726
     15 C         141.3580  135.4970  155.6617 C.3     1  UNL1        0.1152
     16 C         142.9410  137.2965  156.6648 C.3     1  UNL1        0.1152
     17 C         140.3451  145.5452  161.2516 C.3     1  UNL1        0.2542
     18 O         141.3453  144.4467  161.4589 O.3     1  UNL1       -0.4563
     19 C         139.8186  142.7801  163.8055 C.ar    1  UNL1       -0.0157
     20 C         138.3833  142.3723  163.6520 C.ar    1  UNL1       -0.0039
     21 C         137.3030  143.1600  164.3321 C.ar    1  UNL1       -0.0003
     22 C         137.6580  144.3555  165.1656 C.ar    1  UNL1       -0.0000
     23 C         139.0934  144.7633  165.3191 C.ar    1  UNL1       -0.0003
     24 C         140.1737  143.9756  164.6391 C.ar    1  UNL1       -0.0039
     25 C         141.9552  141.3083  163.9416 C.3     1  UNL1        0.1158
     26 O         143.0056  142.1669  163.3017 O.3     1  UNL1       -0.3820
     27 H         142.8248  142.2452  162.3519 H       1  UNL1        0.2107
     28 C         140.9049  140.4497  164.5814 C.ar    1  UNL1        0.0024
     29 C         140.1921  139.4076  163.7712 C.ar    1  UNL1       -0.0020
     30 C         139.1418  138.5490  164.4111 C.ar    1  UNL1       -0.0002
     31 C         138.8040  138.7324  165.8610 C.ar    1  UNL1       -0.0000
     32 C         139.5167  139.7743  166.6711 C.ar    1  UNL1       -0.0002
     33 C         139.1790  139.9577  168.1211 C.ar    1  UNL1       -0.0000
     34 C         139.8917  140.9997  168.9312 C.ar    1  UNL1       -0.0000
     35 C         140.9421  141.8584  168.2914 C.ar    1  UNL1       -0.0000
     36 C         141.2798  141.6750  166.8414 C.ar    1  UNL1       -0.0002
     37 C         140.5671  140.6330  166.0313 C.ar    1  UNL1       -0.0018
     38 C         143.0116  140.6242  164.7577 C.3     1  UNL1        0.0491
     39 C         143.7561  139.4522  164.1901 C.3     1  UNL1        0.0750
     40 N         143.7227  139.1858  162.7143 N.3     1  UNL1       -0.2702
     41 C         142.9661  138.0048  162.1823 C.3     1  UNL1        0.0897
     42 C         144.4458  140.1002  161.7705 C.3     1  UNL1        0.0897
@<TRIPOS>BOND
     1    17    18    1
     2    18     2    1
     3     2     3   ar
     4     3     4   ar
     5     4     5   ar
     6     5     6   ar
     7     6     7   ar
     8     7    12    1
     9    12    13    2
    10    12    14   am
    11    14    15    1
    12    14    16    1
    13     7     8   ar
    14     8     9   ar
    15     9    10   ar
    16    10    11   ar
    17    11     1    1
    18     1    19    1
    19    19    20   ar
    20    20    21   ar
    21    21    22   ar
    22    22    23   ar
    23    23    24   ar
    24     1    25    1
    25    25    26    1
    26    25    38    1
    27    38    39    1
    28    39    40    1
    29    40    41    1
    30    40    42    1
    31    25    28    1
    32    28    29   ar
    33    29    30   ar
    34    30    31   ar
    35    31    32   ar
    36    32    33   ar
    37    33    34   ar
    38    34    35   ar
    39    35    36   ar
    40    36    37   ar
    41    11     2   ar
    42    24    19   ar
    43    37    28   ar
    44     9     4   ar
    45    37    32   ar
    46    26    27    1
