@<TRIPOS>MOLECULE
*****
 30 32 0 0 0
SMALL
GASTEIGER

@<TRIPOS>ATOM
      1 C         139.3756  139.3464  163.7570 C.ar    1  UNL1        0.0519
      2 C         139.7580  138.4561  162.6120 C.ar    1  UNL1        0.0853
      3 C         141.0489  137.6933  162.6537 C.ar    1  UNL1        0.1045
      4 N         141.9574  137.8210  163.8404 N.ar    1  UNL1       -0.2439
      5 C         141.5751  138.7113  164.9853 C.ar    1  UNL1        0.0785
      6 C         142.4837  138.8390  166.1721 C.ar    1  UNL1       -0.0042
      7 C         143.7746  138.0763  166.2137 C.3     1  UNL1        0.0326
      8 C         142.1013  139.7294  167.3170 C.ar    1  UNL1       -0.0027
      9 C         140.8104  140.4921  167.2753 C.ar    1  UNL1        0.0013
     10 C         139.9018  140.3645  166.0887 C.ar    1  UNL1        0.0028
     11 C         140.2842  139.4741  164.9436 C.ar    1  UNL1        0.0306
     12 C         140.4280  141.3825  168.4204 C.ar    1  UNL1        0.0192
     13 C         140.8768  142.8137  168.4398 C.ar    1  UNL1        0.0031
     14 C         140.4945  143.7041  169.5848 C.ar    1  UNL1        0.0207
     15 C         139.6634  143.1633  170.7103 C.ar    1  UNL1        0.0989
     16 N         139.2147  141.7322  170.6909 N.ar    1  UNL1       -0.2423
     17 C         139.5970  140.8418  169.5459 C.ar    1  UNL1        0.0988
     18 C         138.8494  138.3284  161.4253 C.2     1  UNL1        0.2455
     19 N         139.4116  138.4160  160.0374 N.am    1  UNL1       -0.3252
     20 O         137.3786  138.1131  161.6265 O.2     1  UNL1       -0.2703
     21 H         140.3769  138.5574  159.9054 H       1  UNL1        0.1453
     22 H         138.8152  138.3323  159.2586 H       1  UNL1        0.1453
     23 N         138.0847  140.1092  163.7153 N.pl3   1  UNL1       -0.3325
     24 H         137.2943  139.7656  164.1913 H       1  UNL1        0.1468
     25 C         137.9979  141.3954  162.9485 C.3     1  UNL1        0.0870
     26 C         138.6772  142.6269  163.4701 C.3     1  UNL1        0.0195
     27 C         138.8751  144.4783  165.2820 C.3     1  UNL1        0.0001
     28 C         138.1078  143.3537  164.6523 C.3     1  UNL1        0.0017
     29 C         139.9257  143.1315  162.8095 C.3     1  UNL1        0.0017
     30 C         141.2289  142.4212  163.0269 C.3     1  UNL1        0.0001
@<TRIPOS>BOND
     1    27    28    1
     2    28    26    1
     3    26    29    1
     4    29    30    1
     5    26    25    1
     6    25    23    1
     7    23     1    1
     8     1     2   ar
     9     2    18    1
    10    18    19   am
    11    18    20    2
    12     2     3   ar
    13     3     4   ar
    14     4     5   ar
    15     5     6   ar
    16     6     7    1
    17     6     8   ar
    18     8     9   ar
    19     9    12    1
    20    12    13   ar
    21    13    14   ar
    22    14    15   ar
    23    15    16   ar
    24    16    17   ar
    25     9    10   ar
    26    10    11   ar
    27    11     1   ar
    28    11     5   ar
    29    17    12   ar
    30    23    24    1
    31    19    21    1
    32    19    22    1
@<TRIPOS>MOLECULE
*****
 30 32 0 0 0
SMALL
GASTEIGER

@<TRIPOS>ATOM
      1 C         140.5658  141.6045  167.9468 C.ar    1  UNL1        0.0519
      2 C         140.3125  141.6823  169.4232 C.ar    1  UNL1        0.0853
      3 C         139.3197  140.7580  170.0636 C.ar    1  UNL1        0.1045
      4 N         138.5803  139.7558  169.2276 N.ar    1  UNL1       -0.2439
      5 C         138.8336  139.6780  167.7512 C.ar    1  UNL1        0.0785
      6 C         138.0942  138.6759  166.9151 C.ar    1  UNL1       -0.0042
      7 C         137.1014  137.7516  167.5555 C.3     1  UNL1        0.0326
      8 C         138.3475  138.5981  165.4388 C.ar    1  UNL1       -0.0027
      9 C         139.3403  139.5224  164.7984 C.ar    1  UNL1        0.0013
     10 C         140.0797  140.5245  165.6344 C.ar    1  UNL1        0.0028
     11 C         139.8264  140.6023  167.1108 C.ar    1  UNL1        0.0306
     12 C         139.5936  139.4445  163.3219 C.ar    1  UNL1        0.0192
     13 C         138.9240  138.3825  162.5011 C.ar    1  UNL1        0.0031
     14 C         139.1772  138.3046  161.0247 C.ar    1  UNL1        0.0207
     15 C         140.1001  139.2888  160.3692 C.ar    1  UNL1        0.0989
     16 N         140.7697  140.3508  161.1900 N.ar    1  UNL1       -0.2423
     17 C         140.5164  140.4287  162.6664 C.ar    1  UNL1        0.0988
     18 C         141.0520  142.6844  170.2593 C.2     1  UNL1        0.2455
     19 N         142.0097  142.2190  171.3157 N.am    1  UNL1       -0.3252
     20 O         140.8336  144.1520  170.0389 O.2     1  UNL1       -0.2703
     21 H         142.1530  141.2558  171.4604 H       1  UNL1        0.1453
     22 H         142.4950  142.8767  171.8645 H       1  UNL1        0.1453
     23 N         141.5586  142.5288  167.3065 N.pl3   1  UNL1       -0.3325
     24 H         141.2761  143.4226  167.0057 H       1  UNL1        0.1468
     25 C         142.9817  142.0912  167.1243 C.3     1  UNL1        0.0870
     26 C         143.6512  142.2523  165.7917 C.3     1  UNL1        0.0195
     27 C         143.6010  139.7156  165.2324 C.3     1  UNL1        0.0001
     28 C         143.5858  141.1459  164.7808 C.3     1  UNL1        0.0017
     29 C         144.3860  143.5197  165.4699 C.3     1  UNL1        0.0017
     30 C         143.9058  144.4032  164.3568 C.3     1  UNL1        0.0001
@<TRIPOS>BOND
     1    27    28    1
     2    28    26    1
     3    26    29    1
     4    29    30    1
     5    26    25    1
     6    25    23    1
     7    23     1    1
     8     1     2   ar
     9     2    18    1
    10    18    19   am
    11    18    20    2
    12     2     3   ar
    13     3     4   ar
    14     4     5   ar
    15     5     6   ar
    16     6     7    1
    17     6     8   ar
    18     8     9   ar
    19     9    12    1
    20    12    13   ar
    21    13    14   ar
    22    14    15   ar
    23    15    16   ar
    24    16    17   ar
    25     9    10   ar
    26    10    11   ar
    27    11     1   ar
    28    11     5   ar
    29    17    12   ar
    30    23    24    1
    31    19    21    1
    32    19    22    1
@<TRIPOS>MOLECULE
*****
 30 32 0 0 0
SMALL
GASTEIGER

@<TRIPOS>ATOM
      1 C         140.2687  144.3671  163.1724 C.ar    1  UNL1        0.0519
      2 C         140.8827  144.8008  161.8744 C.ar    1  UNL1        0.0853
      3 C         142.3082  144.4513  161.5652 C.ar    1  UNL1        0.1045
      4 N         143.1199  143.6681  162.5540 N.ar    1  UNL1       -0.2439
      5 C         142.5059  143.2344  163.8520 C.ar    1  UNL1        0.0785
      6 C         143.3175  142.4511  164.8409 C.ar    1  UNL1       -0.0042
      7 C         144.7431  142.1016  164.5317 C.3     1  UNL1        0.0326
      8 C         142.7036  142.0174  166.1389 C.ar    1  UNL1       -0.0027
      9 C         141.2780  142.3669  166.4481 C.ar    1  UNL1        0.0013
     10 C         140.4664  143.1501  165.4593 C.ar    1  UNL1        0.0028
     11 C         141.0803  143.5839  164.1612 C.ar    1  UNL1        0.0306
     12 C         140.6641  141.9331  167.7462 C.ar    1  UNL1        0.0192
     13 C         140.5412  142.9072  168.8802 C.ar    1  UNL1        0.0031
     14 C         139.9273  142.4735  170.1783 C.ar    1  UNL1        0.0207
     15 C         139.4363  141.0657  170.3423 C.ar    1  UNL1        0.0989
     16 N         139.5592  140.0916  169.2083 N.ar    1  UNL1       -0.2423
     17 C         140.1731  140.5253  167.9102 C.ar    1  UNL1        0.0988
     18 C         140.0710  145.5841  160.8855 C.2     1  UNL1        0.2455
     19 N         140.1129  145.2257  159.4296 N.am    1  UNL1       -0.3252
     20 O         139.2175  146.7257  161.3526 O.2     1  UNL1       -0.2703
     21 H         140.6731  144.4764  159.1230 H       1  UNL1        0.1453
     22 H         139.5803  145.7398  158.7805 H       1  UNL1        0.1453
     23 N         138.8432  144.7166  163.4816 N.pl3   1  UNL1       -0.3325
     24 H         138.6391  145.4946  164.0492 H       1  UNL1        0.1468
     25 C         137.7285  143.8806  162.9260 C.3     1  UNL1        0.0870
     26 C         137.7902  142.3853  163.0272 C.3     1  UNL1        0.0195
     27 C         138.4333  142.2325  160.5146 C.3     1  UNL1        0.0001
     28 C         138.0616  141.5613  161.8035 C.3     1  UNL1        0.0017
     29 C         137.5805  141.7140  164.3521 C.3     1  UNL1        0.0017
     30 C         138.1977  140.3733  164.6197 C.3     1  UNL1        0.0001
@<TRIPOS>BOND
     1    27    28    1
     2    28    26    1
     3    26    29    1
     4    29    30    1
     5    26    25    1
     6    25    23    1
     7    23     1    1
     8     1     2   ar
     9     2    18    1
    10    18    19   am
    11    18    20    2
    12     2     3   ar
    13     3     4   ar
    14     4     5   ar
    15     5     6   ar
    16     6     7    1
    17     6     8   ar
    18     8     9   ar
    19     9    12    1
    20    12    13   ar
    21    13    14   ar
    22    14    15   ar
    23    15    16   ar
    24    16    17   ar
    25     9    10   ar
    26    10    11   ar
    27    11     1   ar
    28    11     5   ar
    29    17    12   ar
    30    23    24    1
    31    19    21    1
    32    19    22    1
@<TRIPOS>MOLECULE
*****
 30 32 0 0 0
SMALL
GASTEIGER

@<TRIPOS>ATOM
      1 C         140.5827  141.5128  167.9812 C.ar    1  UNL1        0.0519
      2 C         140.2949  141.6355  169.4482 C.ar    1  UNL1        0.0853
      3 C         139.2612  140.7553  170.0859 C.ar    1  UNL1        0.1045
      4 N         138.5152  139.7525  169.2566 N.ar    1  UNL1       -0.2439
      5 C         138.8031  139.6298  167.7896 C.ar    1  UNL1        0.0785
      6 C         138.0571  138.6268  166.9602 C.ar    1  UNL1       -0.0042
      7 C         137.0234  137.7466  167.5979 C.3     1  UNL1        0.0326
      8 C         138.3449  138.5041  165.4933 C.ar    1  UNL1       -0.0027
      9 C         139.3787  139.3843  164.8556 C.ar    1  UNL1        0.0013
     10 C         140.1246  140.3872  165.6849 C.ar    1  UNL1        0.0028
     11 C         139.8368  140.5099  167.1519 C.ar    1  UNL1        0.0306
     12 C         139.6665  139.2616  163.3885 C.ar    1  UNL1        0.0192
     13 C         140.7345  140.1071  162.7604 C.ar    1  UNL1        0.0031
     14 C         141.0223  139.9844  161.2935 C.ar    1  UNL1        0.0207
     15 C         140.2421  139.0162  160.4546 C.ar    1  UNL1        0.0989
     16 N         139.1741  138.1707  161.0826 N.ar    1  UNL1       -0.2423
     17 C         138.8862  138.2934  162.5496 C.ar    1  UNL1        0.0988
     18 C         141.0409  142.6385  170.2775 C.2     1  UNL1        0.2455
     19 N         141.9802  142.1741  171.3508 N.am    1  UNL1       -0.3252
     20 O         140.8474  144.1058  170.0336 O.2     1  UNL1       -0.2703
     21 H         142.1072  141.2110  171.5109 H       1  UNL1        0.1453
     22 H         142.4698  142.8323  171.8951 H       1  UNL1        0.1453
     23 N         141.6165  142.3930  167.3435 N.pl3   1  UNL1       -0.3325
     24 H         141.4097  143.3365  167.1527 H       1  UNL1        0.1468
     25 C         142.9651  141.8358  166.9965 C.3     1  UNL1        0.0870
     26 C         143.3353  141.6066  165.5610 C.3     1  UNL1        0.0195
     27 C         144.1199  143.9320  164.7084 C.3     1  UNL1        0.0001
     28 C         143.2335  142.7297  164.5718 C.3     1  UNL1        0.0017
     29 C         143.8072  140.2546  165.1148 C.3     1  UNL1        0.0017
     30 C         143.3969  139.0284  165.8752 C.3     1  UNL1        0.0001
@<TRIPOS>BOND
     1    27    28    1
     2    28    26    1
     3    26    29    1
     4    29    30    1
     5    26    25    1
     6    25    23    1
     7    23     1    1
     8     1     2   ar
     9     2    18    1
    10    18    19   am
    11    18    20    2
    12     2     3   ar
    13     3     4   ar
    14     4     5   ar
    15     5     6   ar
    16     6     7    1
    17     6     8   ar
    18     8     9   ar
    19     9    12    1
    20    12    13   ar
    21    13    14   ar
    22    14    15   ar
    23    15    16   ar
    24    16    17   ar
    25     9    10   ar
    26    10    11   ar
    27    11     1   ar
    28    11     5   ar
    29    17    12   ar
    30    23    24    1
    31    19    21    1
    32    19    22    1
@<TRIPOS>MOLECULE
*****
 30 32 0 0 0
SMALL
GASTEIGER

@<TRIPOS>ATOM
      1 C         140.5023  144.2783  163.5555 C.ar    1  UNL1        0.0519
      2 C         139.9650  144.2672  162.1551 C.ar    1  UNL1        0.0853
      3 C         139.1296  143.1149  161.6814 C.ar    1  UNL1        0.1045
      4 N         138.8315  141.9738  162.6081 N.ar    1  UNL1       -0.2439
      5 C         139.3688  141.9848  164.0085 C.ar    1  UNL1        0.0785
      6 C         139.0707  140.8436  164.9352 C.ar    1  UNL1       -0.0042
      7 C         138.2353  139.6914  164.4615 C.3     1  UNL1        0.0326
      8 C         139.6080  140.8547  166.3356 C.ar    1  UNL1       -0.0027
      9 C         140.4434  142.0070  166.8093 C.ar    1  UNL1        0.0013
     10 C         140.7415  143.1481  165.8826 C.ar    1  UNL1        0.0028
     11 C         140.2042  143.1371  164.4822 C.ar    1  UNL1        0.0306
     12 C         140.9807  142.0180  168.2098 C.ar    1  UNL1        0.0192
     13 C         140.0526  141.8160  169.3708 C.ar    1  UNL1        0.0031
     14 C         140.5899  141.8271  170.7712 C.ar    1  UNL1        0.0207
     15 C         142.0552  142.0400  171.0106 C.ar    1  UNL1        0.0989
     16 N         142.9833  142.2420  169.8496 N.ar    1  UNL1       -0.2423
     17 C         142.4461  142.2310  168.4492 C.ar    1  UNL1        0.0988
     18 C         140.2631  145.4084  161.2283 C.2     1  UNL1        0.2455
     19 N         141.5077  145.3895  160.3914 N.am    1  UNL1       -0.3252
     20 O         139.3165  146.5685  161.1385 O.2     1  UNL1       -0.2703
     21 H         142.1290  144.6281  160.4504 H       1  UNL1        0.1453
     22 H         141.7034  146.1385  159.7832 H       1  UNL1        0.1453
     23 N         141.3377  145.4305  164.0292 N.pl3   1  UNL1       -0.3325
     24 H         140.9275  146.1498  164.5617 H       1  UNL1        0.1468
     25 C         142.7981  145.4869  163.6915 C.3     1  UNL1        0.0870
     26 C         143.6144  144.2285  163.6803 C.3     1  UNL1        0.0195
     27 C         143.1521  142.5139  161.7838 C.3     1  UNL1        0.0001
     28 C         144.0030  143.5982  162.3757 C.3     1  UNL1        0.0017
     29 C         144.0421  143.6003  164.9735 C.3     1  UNL1        0.0017
     30 C         144.1254  142.1073  165.0907 C.3     1  UNL1        0.0001
@<TRIPOS>BOND
     1    27    28    1
     2    28    26    1
     3    26    29    1
     4    29    30    1
     5    26    25    1
     6    25    23    1
     7    23     1    1
     8     1     2   ar
     9     2    18    1
    10    18    19   am
    11    18    20    2
    12     2     3   ar
    13     3     4   ar
    14     4     5   ar
    15     5     6   ar
    16     6     7    1
    17     6     8   ar
    18     8     9   ar
    19     9    12    1
    20    12    13   ar
    21    13    14   ar
    22    14    15   ar
    23    15    16   ar
    24    16    17   ar
    25     9    10   ar
    26    10    11   ar
    27    11     1   ar
    28    11     5   ar
    29    17    12   ar
    30    23    24    1
    31    19    21    1
    32    19    22    1
@<TRIPOS>MOLECULE
*****
 30 32 0 0 0
SMALL
GASTEIGER

@<TRIPOS>ATOM
      1 C         139.7489  142.0326  163.4524 C.ar    1  UNL1        0.0519
      2 C         138.9003  141.4450  162.3640 C.ar    1  UNL1        0.0853
      3 C         137.9994  140.2828  162.6602 C.ar    1  UNL1        0.1045
      4 N         137.9472  139.7082  164.0447 N.ar    1  UNL1       -0.2439
      5 C         138.7958  140.2958  165.1331 C.ar    1  UNL1        0.0785
      6 C         138.7435  139.7212  166.5177 C.ar    1  UNL1       -0.0042
      7 C         137.8427  138.5589  166.8139 C.3     1  UNL1        0.0326
      8 C         139.5921  140.3087  167.6061 C.ar    1  UNL1       -0.0027
      9 C         140.4930  141.4709  167.3099 C.ar    1  UNL1        0.0013
     10 C         140.5452  142.0456  165.9254 C.ar    1  UNL1        0.0028
     11 C         139.6966  141.4580  164.8369 C.ar    1  UNL1        0.0306
     12 C         141.3416  142.0585  168.3984 C.ar    1  UNL1        0.0192
     13 C         142.7853  141.6691  168.5165 C.ar    1  UNL1        0.0031
     14 C         143.6339  142.2567  169.6049 C.ar    1  UNL1        0.0207
     15 C         143.0388  143.2336  170.5752 C.ar    1  UNL1        0.0989
     16 N         141.5950  143.6230  170.4570 N.ar    1  UNL1       -0.2423
     17 C         140.7464  143.0355  169.3686 C.ar    1  UNL1        0.0988
     18 C         138.9526  142.0196  160.9793 C.2     1  UNL1        0.2455
     19 N         139.3682  141.1572  159.8246 N.am    1  UNL1       -0.3252
     20 O         138.5891  143.4567  160.7495 O.2     1  UNL1       -0.2703
     21 H         139.6067  140.2141  159.9755 H       1  UNL1        0.1453
     22 H         139.4025  141.5344  158.9159 H       1  UNL1        0.1453
     23 N         140.6498  143.1948  163.1562 N.pl3   1  UNL1       -0.3325
     24 H         140.3256  144.1150  163.2880 H       1  UNL1        0.1468
     25 C         142.0445  142.9550  162.6591 C.3     1  UNL1        0.0870
     26 C         143.1378  142.6142  163.6279 C.3     1  UNL1        0.0195
     27 C         143.6543  145.1348  163.9881 C.3     1  UNL1        0.0001
     28 C         143.8198  143.7027  164.4025 C.3     1  UNL1        0.0017
     29 C         143.5490  141.1848  163.8222 C.3     1  UNL1        0.0017
     30 C         144.9840  140.8485  164.1007 C.3     1  UNL1        0.0001
@<TRIPOS>BOND
     1    27    28    1
     2    28    26    1
     3    26    29    1
     4    29    30    1
     5    26    25    1
     6    25    23    1
     7    23     1    1
     8     1     2   ar
     9     2    18    1
    10    18    19   am
    11    18    20    2
    12     2     3   ar
    13     3     4   ar
    14     4     5   ar
    15     5     6   ar
    16     6     7    1
    17     6     8   ar
    18     8     9   ar
    19     9    12    1
    20    12    13   ar
    21    13    14   ar
    22    14    15   ar
    23    15    16   ar
    24    16    17   ar
    25     9    10   ar
    26    10    11   ar
    27    11     1   ar
    28    11     5   ar
    29    17    12   ar
    30    23    24    1
    31    19    21    1
    32    19    22    1
@<TRIPOS>MOLECULE
*****
 30 32 0 0 0
SMALL
GASTEIGER

@<TRIPOS>ATOM
      1 C         140.2022  141.8589  163.3253 C.ar    1  UNL1        0.0519
      2 C         139.3946  141.2682  162.2078 C.ar    1  UNL1        0.0853
      3 C         138.4041  140.1785  162.4930 C.ar    1  UNL1        0.1045
      4 N         138.2212  139.6794  163.8956 N.ar    1  UNL1       -0.2439
      5 C         139.0288  140.2701  165.0131 C.ar    1  UNL1        0.0785
      6 C         138.8459  139.7710  166.4158 C.ar    1  UNL1       -0.0042
      7 C         137.8554  138.6813  166.7010 C.3     1  UNL1        0.0326
      8 C         139.6535  140.3617  167.5333 C.ar    1  UNL1       -0.0027
      9 C         140.6440  141.4515  167.2482 C.ar    1  UNL1        0.0013
     10 C         140.8269  141.9506  165.8455 C.ar    1  UNL1        0.0028
     11 C         140.0193  141.3599  164.7280 C.ar    1  UNL1        0.0306
     12 C         141.4516  142.0422  168.3658 C.ar    1  UNL1        0.0192
     13 C         142.8920  141.6590  168.5340 C.ar    1  UNL1        0.0031
     14 C         143.6996  142.2497  169.6515 C.ar    1  UNL1        0.0207
     15 C         143.0668  143.2235  170.6008 C.ar    1  UNL1        0.0989
     16 N         141.6264  143.6067  170.4325 N.ar    1  UNL1       -0.2423
     17 C         140.8188  143.0160  169.3150 C.ar    1  UNL1        0.0988
     18 C         139.5775  141.7673  160.8051 C.2     1  UNL1        0.2455
     19 N         138.6101  142.7587  160.2297 N.am    1  UNL1       -0.3252
     20 O         140.7278  141.2749  159.9779 O.2     1  UNL1       -0.2703
     21 H         137.8551  143.0819  160.7726 H       1  UNL1        0.1453
     22 H         138.7302  143.0863  159.3091 H       1  UNL1        0.1453
     23 N         141.1927  142.9487  163.0402 N.pl3   1  UNL1       -0.3325
     24 H         141.9652  142.7713  162.4561 H       1  UNL1        0.1468
     25 C         141.0063  144.3087  163.6449 C.3     1  UNL1        0.0870
     26 C         139.6432  144.9336  163.6797 C.3     1  UNL1        0.0195
     27 C         137.6076  144.0359  165.0216 C.3     1  UNL1        0.0001
     28 C         138.8333  144.8969  164.9418 C.3     1  UNL1        0.0017
     29 C         139.0899  145.5952  162.4525 C.3     1  UNL1        0.0017
     30 C         140.0084  145.9888  161.3338 C.3     1  UNL1        0.0001
@<TRIPOS>BOND
     1    27    28    1
     2    28    26    1
     3    26    29    1
     4    29    30    1
     5    26    25    1
     6    25    23    1
     7    23     1    1
     8     1     2   ar
     9     2    18    1
    10    18    19   am
    11    18    20    2
    12     2     3   ar
    13     3     4   ar
    14     4     5   ar
    15     5     6   ar
    16     6     7    1
    17     6     8   ar
    18     8     9   ar
    19     9    12    1
    20    12    13   ar
    21    13    14   ar
    22    14    15   ar
    23    15    16   ar
    24    16    17   ar
    25     9    10   ar
    26    10    11   ar
    27    11     1   ar
    28    11     5   ar
    29    17    12   ar
    30    23    24    1
    31    19    21    1
    32    19    22    1
@<TRIPOS>MOLECULE
*****
 30 32 0 0 0
SMALL
GASTEIGER

@<TRIPOS>ATOM
      1 C         140.7451  140.8118  163.3749 C.ar    1  UNL1        0.0519
      2 C         140.0035  140.0896  162.2893 C.ar    1  UNL1        0.0853
      3 C         138.8798  139.1597  162.6393 C.ar    1  UNL1        0.1045
      4 N         138.4976  138.9520  164.0748 N.ar    1  UNL1       -0.2439
      5 C         139.2391  139.6743  165.1603 C.ar    1  UNL1        0.0785
      6 C         138.8569  139.4666  166.5960 C.ar    1  UNL1       -0.0042
      7 C         137.7331  138.5367  166.9459 C.3     1  UNL1        0.0326
      8 C         139.5984  140.1888  167.6815 C.ar    1  UNL1       -0.0027
      9 C         140.7222  141.1187  167.3315 C.ar    1  UNL1        0.0013
     10 C         141.1044  141.3264  165.8960 C.ar    1  UNL1        0.0028
     11 C         140.3628  140.6042  164.8104 C.ar    1  UNL1        0.0306
     12 C         141.4637  141.8410  168.4172 C.ar    1  UNL1        0.0192
     13 C         142.9094  141.5323  168.6713 C.ar    1  UNL1        0.0031
     14 C         143.6510  142.2545  169.7569 C.ar    1  UNL1        0.0207
     15 C         142.9468  143.2854  170.5883 C.ar    1  UNL1        0.0989
     16 N         141.5011  143.5941  170.3342 N.ar    1  UNL1       -0.2423
     17 C         140.7595  142.8719  169.2486 C.ar    1  UNL1        0.0988
     18 C         140.3857  140.2972  160.8537 C.2     1  UNL1        0.2455
     19 N         139.8044  141.4440  160.0812 N.am    1  UNL1       -0.3252
     20 O         141.3493  139.3581  160.1908 O.2     1  UNL1       -0.2703
     21 H         139.1719  142.0604  160.5163 H       1  UNL1        0.1453
     22 H         140.0552  141.5803  159.1390 H       1  UNL1        0.1453
     23 N         141.8688  141.7417  163.0249 N.pl3   1  UNL1       -0.3325
     24 H         141.7033  142.7097  162.9556 H       1  UNL1        0.1468
     25 C         143.2448  141.1968  162.7806 C.3     1  UNL1        0.0870
     26 C         144.2531  141.1806  163.8910 C.3     1  UNL1        0.0195
     27 C         143.6203  138.8798  164.9187 C.3     1  UNL1        0.0001
     28 C         144.6633  139.8785  164.5126 C.3     1  UNL1        0.0017
     29 C         144.8513  142.4663  164.3797 C.3     1  UNL1        0.0017
     30 C         144.2207  143.1986  165.5270 C.3     1  UNL1        0.0001
@<TRIPOS>BOND
     1    27    28    1
     2    28    26    1
     3    26    29    1
     4    29    30    1
     5    26    25    1
     6    25    23    1
     7    23     1    1
     8     1     2   ar
     9     2    18    1
    10    18    19   am
    11    18    20    2
    12     2     3   ar
    13     3     4   ar
    14     4     5   ar
    15     5     6   ar
    16     6     7    1
    17     6     8   ar
    18     8     9   ar
    19     9    12    1
    20    12    13   ar
    21    13    14   ar
    22    14    15   ar
    23    15    16   ar
    24    16    17   ar
    25     9    10   ar
    26    10    11   ar
    27    11     1   ar
    28    11     5   ar
    29    17    12   ar
    30    23    24    1
    31    19    21    1
    32    19    22    1
@<TRIPOS>MOLECULE
*****
 30 32 0 0 0
SMALL
GASTEIGER

@<TRIPOS>ATOM
      1 C         139.8075  143.0638  164.1147 C.ar    1  UNL1        0.0519
      2 C         139.8846  143.5231  162.6889 C.ar    1  UNL1        0.0853
      3 C         141.2195  143.7808  162.0551 C.ar    1  UNL1        0.1045
      4 N         142.4772  143.5791  162.8471 N.ar    1  UNL1       -0.2439
      5 C         142.4001  143.1197  164.2729 C.ar    1  UNL1        0.0785
      6 C         143.6579  142.9180  165.0650 C.ar    1  UNL1       -0.0042
      7 C         144.9928  143.1757  164.4312 C.3     1  UNL1        0.0326
      8 C         143.5808  142.4587  166.4908 C.ar    1  UNL1       -0.0027
      9 C         142.2459  142.2010  167.1246 C.ar    1  UNL1        0.0013
     10 C         140.9881  142.4027  166.3326 C.ar    1  UNL1        0.0028
     11 C         141.0652  142.8621  164.9067 C.ar    1  UNL1        0.0306
     12 C         142.1688  141.7417  168.5505 C.ar    1  UNL1        0.0192
     13 C         142.2601  140.2797  168.8735 C.ar    1  UNL1        0.0031
     14 C         142.1830  139.8203  170.2993 C.ar    1  UNL1        0.0207
     15 C         142.0147  140.8229  171.4021 C.ar    1  UNL1        0.0989
     16 N         141.9235  142.2849  171.0792 N.ar    1  UNL1       -0.2423
     17 C         142.0005  142.7443  169.6534 C.ar    1  UNL1        0.0988
     18 C         138.6268  143.7248  161.8968 C.2     1  UNL1        0.2455
     19 N         138.4449  143.0194  160.5856 N.am    1  UNL1       -0.3252
     20 O         137.5509  144.6320  162.4160 O.2     1  UNL1       -0.2703
     21 H         139.1511  142.4240  160.2449 H       1  UNL1        0.1453
     22 H         137.6194  143.1518  160.0657 H       1  UNL1        0.1453
     23 N         138.4726  142.8061  164.7485 N.pl3   1  UNL1       -0.3325
     24 H         138.0828  143.4699  165.3623 H       1  UNL1        0.1468
     25 C         137.7316  141.5373  164.4472 C.3     1  UNL1        0.0870
     26 C         138.3965  140.2105  164.6658 C.3     1  UNL1        0.0195
     27 C         139.0006  139.6357  167.1264 C.3     1  UNL1        0.0001
     28 C         138.1291  139.4356  165.9221 C.3     1  UNL1        0.0017
     29 C         139.3286  139.6587  163.6283 C.3     1  UNL1        0.0017
     30 C         140.7456  139.3283  163.9927 C.3     1  UNL1        0.0001
@<TRIPOS>BOND
     1    27    28    1
     2    28    26    1
     3    26    29    1
     4    29    30    1
     5    26    25    1
     6    25    23    1
     7    23     1    1
     8     1     2   ar
     9     2    18    1
    10    18    19   am
    11    18    20    2
    12     2     3   ar
    13     3     4   ar
    14     4     5   ar
    15     5     6   ar
    16     6     7    1
    17     6     8   ar
    18     8     9   ar
    19     9    12    1
    20    12    13   ar
    21    13    14   ar
    22    14    15   ar
    23    15    16   ar
    24    16    17   ar
    25     9    10   ar
    26    10    11   ar
    27    11     1   ar
    28    11     5   ar
    29    17    12   ar
    30    23    24    1
    31    19    21    1
    32    19    22    1
