@<TRIPOS>MOLECULE
*****
 29 33 0 0 0
SMALL
GASTEIGER

@<TRIPOS>ATOM
      1 C         141.4054  141.5437  164.4416 C.3     1  UNL1        0.0339
      2 C         140.6798  140.9672  165.6210 C.ar    1  UNL1        0.0095
      3 C         139.4052  140.2031  165.4172 C.ar    1  UNL1        0.0730
      4 C         138.6795  139.6267  166.5967 C.ar    1  UNL1        0.1531
      5 F         137.4049  138.8626  166.3928 F       1  UNL1       -0.2029
      6 C         139.2284  139.8143  167.9799 C.ar    1  UNL1        0.0321
      7 C         140.5030  140.5784  168.1837 C.ar    1  UNL1        0.0154
      8 C         141.0519  140.7661  169.5670 C.ar    1  UNL1       -0.0004
      9 C         142.3265  141.5302  169.7708 C.ar    1  UNL1        0.0579
     10 C         143.0522  142.1066  168.5914 C.ar    1  UNL1        0.2606
     11 O         144.3268  142.8708  168.7953 O.2     1  UNL1       -0.2670
     12 N         142.5033  141.9190  167.2081 N.ar    1  UNL1       -0.2977
     13 C         141.2287  141.1549  167.0043 C.ar    1  UNL1        0.0594
     14 N         138.8562  140.0154  164.0339 N.pl3   1  UNL1       -0.3046
     15 C         137.9640  140.9736  163.3019 C.3     1  UNL1        0.0922
     16 C         137.6594  140.3871  161.9554 C.3     1  UNL1        0.0357
     17 C         137.5360  139.5642  160.7073 C.3     1  UNL1        0.0190
     18 C         138.3635  139.0663  161.8552 C.3     1  UNL1        0.0590
     19 N         138.7834  137.7834  161.2010 N.3     1  UNL1       -0.3218
     20 C         139.1031  138.8367  163.1397 C.3     1  UNL1        0.1049
     21 H         139.3836  137.2582  161.8368 H       1  UNL1        0.1188
     22 H         139.2953  137.9907  160.3434 H       1  UNL1        0.1188
     23 C         140.3263  140.1897  170.7465 C.3     1  UNL1        0.0924
     24 N         140.7569  140.5446  172.1388 N.3     1  UNL1       -0.3175
     25 H         141.6895  140.1696  172.3122 H       1  UNL1        0.1192
     26 H         140.1001  140.1463  172.8098 H       1  UNL1        0.1192
     27 C         143.2290  142.4954  166.0287 C.3     1  UNL1        0.0885
     28 C         143.4756  143.6354  165.0855 C.3     1  UNL1        0.0246
     29 C         144.2393  142.3539  164.9291 C.3     1  UNL1        0.0246
@<TRIPOS>BOND
     1     1     2    1
     2     2     3   ar
     3     3    14    1
     4    14    15    1
     5    15    16    1
     6    16    17    1
     7    17    18    1
     8    18    19    1
     9    18    20    1
    10     3     4   ar
    11     4     5    1
    12     4     6   ar
    13     6     7   ar
    14     7     8   ar
    15     8    23    1
    16    23    24    1
    17     8     9   ar
    18     9    10   ar
    19    10    11    2
    20    10    12   ar
    21    12    27    1
    22    27    28    1
    23    28    29    1
    24    12    13   ar
    25    13     2   ar
    26    20    14    1
    27    13     7   ar
    28    18    16    1
    29    29    27    1
    30    19    21    1
    31    19    22    1
    32    24    25    1
    33    24    26    1
@<TRIPOS>MOLECULE
*****
 29 33 0 0 0
SMALL
GASTEIGER

@<TRIPOS>ATOM
      1 C         140.8436  140.5373  164.3269 C.3     1  UNL1        0.0339
      2 C         141.6618  141.2138  165.3866 C.ar    1  UNL1        0.0095
      3 C         142.8833  141.9965  165.0056 C.ar    1  UNL1        0.0730
      4 C         143.7014  142.6729  166.0653 C.ar    1  UNL1        0.1531
      5 F         144.9230  143.4556  165.6842 F       1  UNL1       -0.2029
      6 C         143.2980  142.5667  167.5061 C.ar    1  UNL1        0.0321
      7 C         142.0765  141.7840  167.8872 C.ar    1  UNL1        0.0154
      8 C         141.6730  141.6777  169.3280 C.ar    1  UNL1       -0.0004
      9 C         140.4515  140.8950  169.7091 C.ar    1  UNL1        0.0579
     10 C         139.6334  140.2186  168.6493 C.ar    1  UNL1        0.2606
     11 O         138.4118  139.4358  169.0304 O.2     1  UNL1       -0.2670
     12 N         140.0368  140.3248  167.2085 N.ar    1  UNL1       -0.2977
     13 C         141.2584  141.1075  166.8274 C.ar    1  UNL1        0.0594
     14 N         143.2867  142.1027  163.5647 N.pl3   1  UNL1       -0.3046
     15 C         144.2438  141.1970  162.8480 C.3     1  UNL1        0.0922
     16 C         144.3526  141.6678  161.4280 C.3     1  UNL1        0.0357
     17 C         144.2571  142.3582  160.0998 C.3     1  UNL1        0.0190
     18 C         143.4627  142.8646  161.2671 C.3     1  UNL1        0.0590
     19 N         142.8138  144.0011  160.5341 N.3     1  UNL1       -0.3218
     20 C         142.8040  143.1334  162.5876 C.3     1  UNL1        0.1049
     21 H         142.1984  144.5085  161.1698 H       1  UNL1        0.1188
     22 H         142.2690  143.6352  159.7532 H       1  UNL1        0.1188
     23 C         142.4911  142.3542  170.3878 C.3     1  UNL1        0.0924
     24 N         142.0888  142.2464  171.8288 N.3     1  UNL1       -0.3175
     25 H         141.1985  142.7237  171.9698 H       1  UNL1        0.1192
     26 H         142.8030  142.6790  172.4145 H       1  UNL1        0.1192
     27 C         139.2187  139.6483  166.1487 C.3     1  UNL1        0.0885
     28 C         138.8639  138.4161  165.3706 C.3     1  UNL1        0.0246
     29 C         138.1565  139.7090  165.0914 C.3     1  UNL1        0.0246
@<TRIPOS>BOND
     1     1     2    1
     2     2     3   ar
     3     3    14    1
     4    14    15    1
     5    15    16    1
     6    16    17    1
     7    17    18    1
     8    18    19    1
     9    18    20    1
    10     3     4   ar
    11     4     5    1
    12     4     6   ar
    13     6     7   ar
    14     7     8   ar
    15     8    23    1
    16    23    24    1
    17     8     9   ar
    18     9    10   ar
    19    10    11    2
    20    10    12   ar
    21    12    27    1
    22    27    28    1
    23    28    29    1
    24    12    13   ar
    25    13     2   ar
    26    20    14    1
    27    13     7   ar
    28    18    16    1
    29    29    27    1
    30    19    21    1
    31    19    22    1
    32    24    25    1
    33    24    26    1
@<TRIPOS>MOLECULE
*****
 29 33 0 0 0
SMALL
GASTEIGER

@<TRIPOS>ATOM
      1 C         140.1849  138.9810  165.1059 C.3     1  UNL1        0.0339
      2 C         139.9179  140.4563  165.1522 C.ar    1  UNL1        0.0095
      3 C         140.2924  141.2485  166.3697 C.ar    1  UNL1        0.0730
      4 C         140.0254  142.7238  166.4160 C.ar    1  UNL1        0.1531
      5 F         140.4000  143.5159  167.6335 F       1  UNL1       -0.2029
      6 C         139.3838  143.4070  165.2448 C.ar    1  UNL1        0.0321
      7 C         139.0093  142.6148  164.0274 C.ar    1  UNL1        0.0154
      8 C         138.3676  143.2980  162.8562 C.ar    1  UNL1       -0.0004
      9 C         137.9931  142.5059  161.6388 C.ar    1  UNL1        0.0579
     10 C         138.2601  141.0306  161.5925 C.ar    1  UNL1        0.2606
     11 O         137.8855  140.2385  160.3749 O.2     1  UNL1       -0.2670
     12 N         138.9017  140.3474  162.7636 N.ar    1  UNL1       -0.2977
     13 C         139.2763  141.1395  163.9811 C.ar    1  UNL1        0.0594
     14 N         140.9341  140.5653  167.5409 N.pl3   1  UNL1       -0.3046
     15 C         142.3470  140.0657  167.6046 C.3     1  UNL1        0.0922
     16 C         142.5616  139.4534  168.9570 C.3     1  UNL1        0.0357
     17 C         142.4771  138.9223  170.3573 C.3     1  UNL1        0.0190
     18 C         141.2812  139.5746  169.7291 C.3     1  UNL1        0.0590
     19 N         140.3726  139.4074  170.9108 N.3     1  UNL1       -0.3218
     20 C         140.2754  140.2617  168.8539 C.3     1  UNL1        0.1049
     21 H         139.4570  139.8012  170.6940 H       1  UNL1        0.1188
     22 H         140.7692  139.8920  171.7159 H       1  UNL1        0.1188
     23 C         138.1006  144.7733  162.9025 C.3     1  UNL1        0.0924
     24 N         138.9168  145.7100  162.0620 N.3     1  UNL1       -0.3175
     25 H         139.8842  145.7014  162.3852 H       1  UNL1        0.1192
     26 H         138.5400  146.6545  162.1419 H       1  UNL1        0.1192
     27 C         139.1687  138.8721  162.7173 C.3     1  UNL1        0.0885
     28 C         138.7292  137.4634  162.9862 C.3     1  UNL1        0.0246
     29 C         140.0706  137.7255  162.3682 C.3     1  UNL1        0.0246
@<TRIPOS>BOND
     1     1     2    1
     2     2     3   ar
     3     3    14    1
     4    14    15    1
     5    15    16    1
     6    16    17    1
     7    17    18    1
     8    18    19    1
     9    18    20    1
    10     3     4   ar
    11     4     5    1
    12     4     6   ar
    13     6     7   ar
    14     7     8   ar
    15     8    23    1
    16    23    24    1
    17     8     9   ar
    18     9    10   ar
    19    10    11    2
    20    10    12   ar
    21    12    27    1
    22    27    28    1
    23    28    29    1
    24    12    13   ar
    25    13     2   ar
    26    20    14    1
    27    13     7   ar
    28    18    16    1
    29    29    27    1
    30    19    21    1
    31    19    22    1
    32    24    25    1
    33    24    26    1
@<TRIPOS>MOLECULE
*****
 29 33 0 0 0
SMALL
GASTEIGER

@<TRIPOS>ATOM
      1 C         140.9472  141.3970  164.3920 C.3     1  UNL1        0.0339
      2 C         141.5919  140.6770  165.5391 C.ar    1  UNL1        0.0095
      3 C         142.3594  139.4117  165.2944 C.ar    1  UNL1        0.0730
      4 C         143.0041  138.6917  166.4415 C.ar    1  UNL1        0.1531
      5 F         143.7715  137.4263  166.1966 F       1  UNL1       -0.2029
      6 C         142.8813  139.2370  167.8334 C.ar    1  UNL1        0.0321
      7 C         142.1138  140.5023  168.0782 C.ar    1  UNL1        0.0154
      8 C         141.9911  141.0476  169.4702 C.ar    1  UNL1       -0.0004
      9 C         141.2236  142.3129  169.7150 C.ar    1  UNL1        0.0579
     10 C         140.5789  143.0330  168.5679 C.ar    1  UNL1        0.2606
     11 O         139.8114  144.2983  168.8127 O.2     1  UNL1       -0.2670
     12 N         140.7017  142.4877  167.1759 N.ar    1  UNL1       -0.2977
     13 C         141.4691  141.2223  166.9311 C.ar    1  UNL1        0.0594
     14 N         142.4822  138.8663  163.9023 N.pl3   1  UNL1       -0.3046
     15 C         141.4550  138.0417  163.1847 C.3     1  UNL1        0.0922
     16 C         141.9916  137.7156  161.8225 C.3     1  UNL1        0.0357
     17 C         142.7773  137.5548  160.5549 C.3     1  UNL1        0.0190
     18 C         143.3505  138.3387  161.6982 C.3     1  UNL1        0.0590
     19 N         144.6417  138.6861  161.0186 N.3     1  UNL1       -0.3218
     20 C         143.6536  139.0499  162.9837 C.3     1  UNL1        0.1049
     21 H         145.2168  139.2467  161.6474 H       1  UNL1        0.1188
     22 H         144.4471  139.2183  160.1705 H       1  UNL1        0.1188
     23 C         142.6357  140.3276  170.6174 C.3     1  UNL1        0.0924
     24 N         142.2577  140.6729  172.0273 N.3     1  UNL1       -0.3175
     25 H         142.5551  141.6262  172.2353 H       1  UNL1        0.1192
     26 H         142.7150  140.0262  172.6700 H       1  UNL1        0.1192
     27 C         140.0570  143.2077  166.0288 C.3     1  UNL1        0.0885
     28 C         138.8655  143.4456  165.1491 C.3     1  UNL1        0.0246
     29 C         140.1318  144.2169  164.9216 C.3     1  UNL1        0.0246
@<TRIPOS>BOND
     1     1     2    1
     2     2     3   ar
     3     3    14    1
     4    14    15    1
     5    15    16    1
     6    16    17    1
     7    17    18    1
     8    18    19    1
     9    18    20    1
    10     3     4   ar
    11     4     5    1
    12     4     6   ar
    13     6     7   ar
    14     7     8   ar
    15     8    23    1
    16    23    24    1
    17     8     9   ar
    18     9    10   ar
    19    10    11    2
    20    10    12   ar
    21    12    27    1
    22    27    28    1
    23    28    29    1
    24    12    13   ar
    25    13     2   ar
    26    20    14    1
    27    13     7   ar
    28    18    16    1
    29    29    27    1
    30    19    21    1
    31    19    22    1
    32    24    25    1
    33    24    26    1
@<TRIPOS>MOLECULE
*****
 29 33 0 0 0
SMALL
GASTEIGER

@<TRIPOS>ATOM
      1 C         140.1187  143.0987  166.2206 C.3     1  UNL1        0.0339
      2 C         140.4728  141.6734  165.9153 C.ar    1  UNL1        0.0095
      3 C         141.3769  140.9112  166.8380 C.ar    1  UNL1        0.0730
      4 C         141.7311  139.4859  166.5328 C.ar    1  UNL1        0.1531
      5 F         142.6353  138.7236  167.4555 F       1  UNL1       -0.2029
      6 C         141.1810  138.8229  165.3049 C.ar    1  UNL1        0.0321
      7 C         140.2768  139.5851  164.3822 C.ar    1  UNL1        0.0154
      8 C         139.7266  138.9221  163.1542 C.ar    1  UNL1       -0.0004
      9 C         138.8225  139.6844  162.2316 C.ar    1  UNL1        0.0579
     10 C         138.4683  141.1097  162.5368 C.ar    1  UNL1        0.2606
     11 O         137.5641  141.8719  161.6141 O.2     1  UNL1       -0.2670
     12 N         139.0184  141.7727  163.7647 N.ar    1  UNL1       -0.2977
     13 C         139.9227  141.0104  164.6875 C.ar    1  UNL1        0.0594
     14 N         141.9271  141.5742  168.0660 N.pl3   1  UNL1       -0.3046
     15 C         143.2412  142.2902  168.1676 C.3     1  UNL1        0.0922
     16 C         143.3860  142.7961  169.5723 C.3     1  UNL1        0.0357
     17 C         143.2502  143.1686  171.0189 C.3     1  UNL1        0.0190
     18 C         142.1613  142.3927  170.3388 C.3     1  UNL1        0.0590
     19 N         141.2663  142.2939  171.5384 N.3     1  UNL1       -0.3218
     20 C         141.2597  141.6375  169.4078 C.3     1  UNL1        0.1049
     21 H         140.4219  141.7780  171.2910 H       1  UNL1        0.1188
     22 H         141.0128  143.2309  171.8516 H       1  UNL1        0.1188
     23 C         140.0807  137.4968  162.8490 C.3     1  UNL1        0.0924
     24 N         141.3999  137.1713  162.2135 N.3     1  UNL1       -0.3175
     25 H         141.4283  137.5599  161.2709 H       1  UNL1        0.1192
     26 H         141.5145  136.1588  162.1675 H       1  UNL1        0.1192
     27 C         138.6643  143.1980  164.0700 C.3     1  UNL1        0.0885
     28 C         137.7730  144.1996  164.7424 C.3     1  UNL1        0.0246
     29 C         138.9423  144.6649  163.9262 C.3     1  UNL1        0.0246
@<TRIPOS>BOND
     1     1     2    1
     2     2     3   ar
     3     3    14    1
     4    14    15    1
     5    15    16    1
     6    16    17    1
     7    17    18    1
     8    18    19    1
     9    18    20    1
    10     3     4   ar
    11     4     5    1
    12     4     6   ar
    13     6     7   ar
    14     7     8   ar
    15     8    23    1
    16    23    24    1
    17     8     9   ar
    18     9    10   ar
    19    10    11    2
    20    10    12   ar
    21    12    27    1
    22    27    28    1
    23    28    29    1
    24    12    13   ar
    25    13     2   ar
    26    20    14    1
    27    13     7   ar
    28    18    16    1
    29    29    27    1
    30    19    21    1
    31    19    22    1
    32    24    25    1
    33    24    26    1
@<TRIPOS>MOLECULE
*****
 29 33 0 0 0
SMALL
GASTEIGER

@<TRIPOS>ATOM
      1 C         142.7978  142.2387  166.8490 C.3     1  UNL1        0.0339
      2 C         141.7040  141.3796  166.2872 C.ar    1  UNL1        0.0095
      3 C         141.6339  141.1248  164.8107 C.ar    1  UNL1        0.0730
      4 C         140.5402  140.2657  164.2489 C.ar    1  UNL1        0.1531
      5 F         140.4701  140.0109  162.7723 F       1  UNL1       -0.2029
      6 C         139.5166  139.6613  165.1637 C.ar    1  UNL1        0.0321
      7 C         139.5867  139.9160  166.6402 C.ar    1  UNL1        0.0154
      8 C         138.5630  139.3116  167.5550 C.ar    1  UNL1       -0.0004
      9 C         138.6331  139.5664  169.0315 C.ar    1  UNL1        0.0579
     10 C         139.7268  140.4255  169.5933 C.ar    1  UNL1        0.2606
     11 O         139.7969  140.6803  171.0699 O.2     1  UNL1       -0.2670
     12 N         140.7505  141.0299  168.6786 N.ar    1  UNL1       -0.2977
     13 C         140.6804  140.7752  167.2020 C.ar    1  UNL1        0.0594
     14 N         142.6576  141.7292  163.8959 N.pl3   1  UNL1       -0.3046
     15 C         142.3887  142.7266  162.8083 C.3     1  UNL1        0.0922
     16 C         143.6947  143.0562  162.1482 C.3     1  UNL1        0.0357
     17 C         145.1193  143.1828  161.6958 C.3     1  UNL1        0.0190
     18 C         144.7709  142.2624  162.8280 C.3     1  UNL1        0.0590
     19 N         146.1703  141.7831  163.0768 N.3     1  UNL1       -0.3218
     20 C         144.1299  141.4423  163.9080 C.3     1  UNL1        0.1049
     21 H         146.1685  141.1135  163.8462 H       1  UNL1        0.1188
     22 H         146.7636  142.5769  163.3182 H       1  UNL1        0.1188
     23 C         137.4692  138.4524  166.9933 C.3     1  UNL1        0.0924
     24 N         136.6718  137.5643  167.9016 N.3     1  UNL1       -0.3175
     25 H         137.2776  136.8395  168.2863 H       1  UNL1        0.1192
     26 H         135.9148  137.1299  167.3737 H       1  UNL1        0.1192
     27 C         141.8442  141.8891  169.2403 C.3     1  UNL1        0.0885
     28 C         142.2882  143.1627  169.8966 C.3     1  UNL1        0.0246
     29 C         143.2946  142.1035  169.5570 C.3     1  UNL1        0.0246
@<TRIPOS>BOND
     1     1     2    1
     2     2     3   ar
     3     3    14    1
     4    14    15    1
     5    15    16    1
     6    16    17    1
     7    17    18    1
     8    18    19    1
     9    18    20    1
    10     3     4   ar
    11     4     5    1
    12     4     6   ar
    13     6     7   ar
    14     7     8   ar
    15     8    23    1
    16    23    24    1
    17     8     9   ar
    18     9    10   ar
    19    10    11    2
    20    10    12   ar
    21    12    27    1
    22    27    28    1
    23    28    29    1
    24    12    13   ar
    25    13     2   ar
    26    20    14    1
    27    13     7   ar
    28    18    16    1
    29    29    27    1
    30    19    21    1
    31    19    22    1
    32    24    25    1
    33    24    26    1
@<TRIPOS>MOLECULE
*****
 29 33 0 0 0
SMALL
GASTEIGER

@<TRIPOS>ATOM
      1 C         141.9594  140.7815  164.3957 C.3     1  UNL1        0.0339
      2 C         141.2852  141.6220  165.4393 C.ar    1  UNL1        0.0095
      3 C         140.4914  142.8281  165.0331 C.ar    1  UNL1        0.0730
      4 C         139.8172  143.6686  166.0766 C.ar    1  UNL1        0.1531
      5 F         139.0233  144.8747  165.6703 F       1  UNL1       -0.2029
      6 C         139.9368  143.3029  167.5264 C.ar    1  UNL1        0.0321
      7 C         140.7306  142.0968  167.9327 C.ar    1  UNL1        0.0154
      8 C         140.8503  141.7312  169.3825 C.ar    1  UNL1       -0.0004
      9 C         141.6441  140.5250  169.7888 C.ar    1  UNL1        0.0579
     10 C         142.3183  139.6845  168.7452 C.ar    1  UNL1        0.2606
     11 O         143.1122  138.4784  169.1515 O.2     1  UNL1       -0.2670
     12 N         142.1987  140.0502  167.2954 N.ar    1  UNL1       -0.2977
     13 C         141.4048  141.2563  166.8891 C.ar    1  UNL1        0.0594
     14 N         140.3717  143.1937  163.5832 N.pl3   1  UNL1       -0.3046
     15 C         139.3142  142.7093  162.6361 C.3     1  UNL1        0.0922
     16 C         139.5774  143.3241  161.2935 C.3     1  UNL1        0.0357
     17 C         140.0839  144.0730  160.0965 C.3     1  UNL1        0.0190
     18 C         140.7977  144.1886  161.4108 C.3     1  UNL1        0.0590
     19 N         141.8637  145.1271  160.9283 N.3     1  UNL1       -0.3218
     20 C         141.2885  144.1080  162.8259 C.3     1  UNL1        0.1049
     21 H         142.4936  145.3511  161.6987 H       1  UNL1        0.1188
     22 H         141.4314  145.9838  160.5825 H       1  UNL1        0.1188
     23 C         140.1761  142.5716  170.4261 C.3     1  UNL1        0.0924
     24 N         140.4022  142.2852  171.8810 N.3     1  UNL1       -0.3175
     25 H         140.0065  141.3743  172.1137 H       1  UNL1        0.1192
     26 H         139.9503  143.0060  172.4437 H       1  UNL1        0.1192
     27 C         142.8729  139.2097  166.2519 C.3     1  UNL1        0.0885
     28 C         142.8222  138.0941  165.2504 C.3     1  UNL1        0.0246
     29 C         144.0913  138.8695  165.4459 C.3     1  UNL1        0.0246
@<TRIPOS>BOND
     1     1     2    1
     2     2     3   ar
     3     3    14    1
     4    14    15    1
     5    15    16    1
     6    16    17    1
     7    17    18    1
     8    18    19    1
     9    18    20    1
    10     3     4   ar
    11     4     5    1
    12     4     6   ar
    13     6     7   ar
    14     7     8   ar
    15     8    23    1
    16    23    24    1
    17     8     9   ar
    18     9    10   ar
    19    10    11    2
    20    10    12   ar
    21    12    27    1
    22    27    28    1
    23    28    29    1
    24    12    13   ar
    25    13     2   ar
    26    20    14    1
    27    13     7   ar
    28    18    16    1
    29    29    27    1
    30    19    21    1
    31    19    22    1
    32    24    25    1
    33    24    26    1
@<TRIPOS>MOLECULE
*****
 29 33 0 0 0
SMALL
GASTEIGER

@<TRIPOS>ATOM
      1 C         140.2205  142.8814  166.2018 C.3     1  UNL1        0.0339
      2 C         141.2976  142.5985  165.1969 C.ar    1  UNL1        0.0095
      3 C         142.4389  141.6937  165.5554 C.ar    1  UNL1        0.0730
      4 C         143.5159  141.4108  164.5505 C.ar    1  UNL1        0.1531
      5 F         144.6573  140.5058  164.9091 F       1  UNL1       -0.2029
      6 C         143.4517  142.0328  163.1871 C.ar    1  UNL1        0.0321
      7 C         142.3104  142.9377  162.8286 C.ar    1  UNL1        0.0154
      8 C         142.2462  143.5597  161.4651 C.ar    1  UNL1       -0.0004
      9 C         141.1049  144.4646  161.1066 C.ar    1  UNL1        0.0579
     10 C         140.0278  144.7475  162.1115 C.ar    1  UNL1        0.2606
     11 O         138.8865  145.6524  161.7530 O.2     1  UNL1       -0.2670
     12 N         140.0920  144.1255  163.4749 N.ar    1  UNL1       -0.2977
     13 C         141.2334  143.2205  163.8335 C.ar    1  UNL1        0.0594
     14 N         142.5031  141.0716  166.9189 N.pl3   1  UNL1       -0.3046
     15 C         142.0687  139.6806  167.2747 C.3     1  UNL1        0.0922
     16 C         142.3101  139.4806  168.7416 C.3     1  UNL1        0.0357
     17 C         142.6576  139.5755  170.1977 C.3     1  UNL1        0.0190
     18 C         142.8937  140.7480  169.2923 C.3     1  UNL1        0.0590
     19 N         143.4530  141.6528  170.3500 N.3     1  UNL1       -0.3218
     20 C         143.0130  141.7312  168.1658 C.3     1  UNL1        0.1049
     21 H         143.6943  142.5526  169.9348 H       1  UNL1        0.1188
     22 H         144.2889  141.2290  170.7527 H       1  UNL1        0.1188
     23 C         143.3233  143.2769  160.4602 C.3     1  UNL1        0.0924
     24 N         143.1286  143.6618  159.0236 N.3     1  UNL1       -0.3175
     25 H         142.3715  143.1080  158.6228 H       1  UNL1        0.1192
     26 H         143.9893  143.4867  158.5050 H       1  UNL1        0.1192
     27 C         139.0149  144.4084  164.4798 C.3     1  UNL1        0.0885
     28 C         138.5477  145.1100  165.7205 C.3     1  UNL1        0.0246
     29 C         137.6166  144.1966  164.9797 C.3     1  UNL1        0.0246
@<TRIPOS>BOND
     1     1     2    1
     2     2     3   ar
     3     3    14    1
     4    14    15    1
     5    15    16    1
     6    16    17    1
     7    17    18    1
     8    18    19    1
     9    18    20    1
    10     3     4   ar
    11     4     5    1
    12     4     6   ar
    13     6     7   ar
    14     7     8   ar
    15     8    23    1
    16    23    24    1
    17     8     9   ar
    18     9    10   ar
    19    10    11    2
    20    10    12   ar
    21    12    27    1
    22    27    28    1
    23    28    29    1
    24    12    13   ar
    25    13     2   ar
    26    20    14    1
    27    13     7   ar
    28    18    16    1
    29    29    27    1
    30    19    21    1
    31    19    22    1
    32    24    25    1
    33    24    26    1
@<TRIPOS>MOLECULE
*****
 29 33 0 0 0
SMALL
GASTEIGER

@<TRIPOS>ATOM
      1 C         143.0529  140.2377  166.0568 C.3     1  UNL1        0.0339
      2 C         141.6721  139.7538  165.7260 C.ar    1  UNL1        0.0095
      3 C         140.5869  139.8188  166.7594 C.ar    1  UNL1        0.0730
      4 C         139.2062  139.3349  166.4286 C.ar    1  UNL1        0.1531
      5 F         138.1210  139.3999  167.4621 F       1  UNL1       -0.2029
      6 C         138.9107  138.7859  165.0643 C.ar    1  UNL1        0.0321
      7 C         139.9959  138.7208  164.0309 C.ar    1  UNL1        0.0154
      8 C         139.7005  138.1718  162.6665 C.ar    1  UNL1       -0.0004
      9 C         140.7857  138.1067  161.6331 C.ar    1  UNL1        0.0579
     10 C         142.1664  138.5907  161.9639 C.ar    1  UNL1        0.2606
     11 O         143.2516  138.5256  160.9304 O.2     1  UNL1       -0.2670
     12 N         142.4619  139.1397  163.3282 N.ar    1  UNL1       -0.2977
     13 C         141.3767  139.2048  164.3617 C.ar    1  UNL1        0.0594
     14 N         140.8824  140.3678  168.1237 N.pl3   1  UNL1       -0.3046
     15 C         140.2791  141.6014  168.7274 C.3     1  UNL1        0.0922
     16 C         140.8568  141.7757  170.1006 C.3     1  UNL1        0.0357
     17 C         141.5929  141.6882  171.4047 C.3     1  UNL1        0.0190
     18 C         141.8172  140.6498  170.3457 C.3     1  UNL1        0.0590
     19 N         142.8148  139.8446  171.1245 N.3     1  UNL1       -0.3218
     20 C         141.8330  139.7797  169.1239 C.3     1  UNL1        0.1049
     21 H         143.1183  139.0469  170.5659 H       1  UNL1        0.1188
     22 H         142.3838  139.5114  171.9869 H       1  UNL1        0.1188
     23 C         138.3198  137.6878  162.3357 C.3     1  UNL1        0.0924
     24 N         137.3558  138.5953  161.6306 N.3     1  UNL1       -0.3175
     25 H         137.1206  139.3798  162.2386 H       1  UNL1        0.1192
     26 H         136.5078  138.0775  161.4003 H       1  UNL1        0.1192
     27 C         143.8426  139.6236  163.6590 C.3     1  UNL1        0.0885
     28 C         145.1706  139.4079  164.3222 C.3     1  UNL1        0.0246
     29 C         144.9060  140.6776  163.5687 C.3     1  UNL1        0.0246
@<TRIPOS>BOND
     1     1     2    1
     2     2     3   ar
     3     3    14    1
     4    14    15    1
     5    15    16    1
     6    16    17    1
     7    17    18    1
     8    18    19    1
     9    18    20    1
    10     3     4   ar
    11     4     5    1
    12     4     6   ar
    13     6     7   ar
    14     7     8   ar
    15     8    23    1
    16    23    24    1
    17     8     9   ar
    18     9    10   ar
    19    10    11    2
    20    10    12   ar
    21    12    27    1
    22    27    28    1
    23    28    29    1
    24    12    13   ar
    25    13     2   ar
    26    20    14    1
    27    13     7   ar
    28    18    16    1
    29    29    27    1
    30    19    21    1
    31    19    22    1
    32    24    25    1
    33    24    26    1
