@<TRIPOS>MOLECULE
*****
 39 44 0 0 0
SMALL
GASTEIGER

@<TRIPOS>ATOM
      1 C         140.3634  145.3623  158.3231 C.3     1  UNL1        0.0294
      2 C         140.2285  144.0940  157.5335 C.3     1  UNL1        0.0666
      3 S         139.1050  143.1443  157.8262 S.3     1  UNL1       -0.0756
      4 C         139.4364  140.8651  160.9505 C.ar    1  UNL1        0.1669
      5 N         138.4408  141.8774  161.4344 N.ar    1  UNL1       -0.1282
      6 N         138.1955  142.8543  160.3229 N.ar    1  UNL1       -0.1221
      7 C         139.0395  142.4459  159.1521 C.ar    1  UNL1        0.1932
      8 N         139.8064  141.2166  159.5399 N.ar    1  UNL1       -0.2884
      9 C         140.7735  140.4696  158.6700 C.3     1  UNL1        0.1340
     10 C         137.8549  138.5969  167.2437 C.3     1  UNL1        0.0521
     11 C         138.3833  138.8740  165.8674 C.ar    1  UNL1        0.0593
     12 C         137.8511  140.0340  165.0792 C.ar    1  UNL1        0.0147
     13 C         138.3796  140.3110  163.7030 C.ar    1  UNL1        0.0028
     14 C         139.4402  139.4282  163.1149 C.ar    1  UNL1        0.0206
     15 C         139.9686  139.7053  161.7387 C.ar    1  UNL1        0.0374
     16 C         141.0292  138.8224  161.1508 C.ar    1  UNL1        0.0031
     17 C         141.5613  137.6624  161.9390 C.ar    1  UNL1        0.0016
     18 C         141.0329  137.3854  163.3152 C.ar    1  UNL1        0.0191
     19 C         139.9724  138.2682  163.9032 C.ar    1  UNL1        0.0810
     20 N         139.4440  137.9911  165.2794 N.ar    1  UNL1       -0.2497
     21 C         141.4397  145.4892  159.3601 C.3     1  UNL1        0.0730
     22 N         141.2619  144.8543  160.7074 N.3     1  UNL1       -0.2720
     23 C         140.2703  145.5204  161.6148 C.3     1  UNL1        0.0785
     24 C         139.8711  145.1339  163.0082 C.3     1  UNL1        0.0643
     25 C         140.3647  143.9861  163.8381 C.ar    1  UNL1        0.0740
     26 N         139.8819  143.7052  165.2303 N.ar    1  UNL1       -0.2311
     27 C         140.5983  142.4867  165.7323 C.ar    1  UNL1        0.1471
     28 C         140.5274  141.7461  167.0348 C.ar    1  UNL1        0.0374
     29 C         141.3821  140.5334  167.2554 C.ar    1  UNL1        0.0085
     30 C         142.3077  140.0611  166.1736 C.ar    1  UNL1        0.0890
     31 C         142.3785  140.8017  164.8711 C.ar    1  UNL1        0.0849
     32 N         141.5239  142.0145  164.6504 N.ar    1  UNL1       -0.2929
     33 C         141.3795  142.9412  163.4798 C.ar    1  UNL1        0.0577
     34 C         142.1513  142.7860  162.2030 C.3     1  UNL1        0.0627
     35 C         142.0989  143.6375  160.9692 C.3     1  UNL1        0.0784
     36 C         143.1624  138.8483  166.3942 C.3     1  UNL1        0.4200
     37 F         144.0170  137.6356  166.6149 F       1  UNL1       -0.1658
     38 F         143.4291  138.7682  164.9203 F       1  UNL1       -0.1658
     39 F         142.8956  138.9286  167.8681 F       1  UNL1       -0.1658
@<TRIPOS>BOND
     1    10    11    1
     2    11    12   ar
     3    12    13   ar
     4    13    14   ar
     5    14    15   ar
     6    15     4    1
     7     4     5   ar
     8     5     6   ar
     9     6     7   ar
    10     7     3    1
    11     3     2    1
    12     2     1    1
    13     1    21    1
    14    21    22    1
    15    22    23    1
    16    23    24    1
    17    24    25    1
    18    25    26   ar
    19    26    27   ar
    20    27    28   ar
    21    28    29   ar
    22    29    30   ar
    23    30    36    1
    24    36    37    1
    25    36    38    1
    26    36    39    1
    27    30    31   ar
    28    31    32   ar
    29    32    33   ar
    30    33    34    1
    31    34    35    1
    32     7     8   ar
    33     8     9    1
    34    15    16   ar
    35    16    17   ar
    36    17    18   ar
    37    18    19   ar
    38    19    20   ar
    39    20    11   ar
    40    19    14   ar
    41     8     4   ar
    42    35    22    1
    43    33    25   ar
    44    32    27   ar
@<TRIPOS>MOLECULE
*****
 39 44 0 0 0
SMALL
GASTEIGER

@<TRIPOS>ATOM
      1 C         139.5857  143.1496  157.4669 C.3     1  UNL1        0.0294
      2 C         139.7728  144.6307  157.3195 C.3     1  UNL1        0.0666
      3 S         140.4869  145.4063  158.3864 S.3     1  UNL1       -0.0756
      4 C         142.7251  143.9521  161.2045 C.ar    1  UNL1        0.1669
      5 N         143.4033  143.4042  159.9838 N.ar    1  UNL1       -0.1282
      6 N         142.6474  143.8823  158.7797 N.ar    1  UNL1       -0.1221
      7 C         141.5020  144.7256  159.2561 C.ar    1  UNL1        0.1932
      8 N         141.5500  144.7687  160.7546 N.ar    1  UNL1       -0.2884
      9 C         140.5913  145.5000  161.6468 C.3     1  UNL1        0.1340
     10 C         142.5247  138.2947  165.1039 C.3     1  UNL1        0.0521
     11 C         142.6805  139.6519  164.4842 C.ar    1  UNL1        0.0593
     12 C         142.2578  139.8806  163.0633 C.ar    1  UNL1        0.0147
     13 C         142.4136  141.2377  162.4437 C.ar    1  UNL1        0.0028
     14 C         142.9919  142.3662  163.2450 C.ar    1  UNL1        0.0206
     15 C         143.1477  143.7234  162.6254 C.ar    1  UNL1        0.0374
     16 C         143.7260  144.8517  163.4267 C.ar    1  UNL1        0.0031
     17 C         144.1486  144.6230  164.8477 C.ar    1  UNL1        0.0016
     18 C         143.9929  143.2660  165.4673 C.ar    1  UNL1        0.0191
     19 C         143.4146  142.1375  164.6660 C.ar    1  UNL1        0.0810
     20 N         143.2588  140.7804  165.2856 N.ar    1  UNL1       -0.2497
     21 C         138.3330  142.6103  158.0911 C.3     1  UNL1        0.0730
     22 N         138.4050  141.8541  159.3846 N.3     1  UNL1       -0.2720
     23 C         138.0306  140.4034  159.3119 C.3     1  UNL1        0.0785
     24 C         138.0006  139.3888  160.4164 C.3     1  UNL1        0.0643
     25 C         138.3376  139.5744  161.8661 C.ar    1  UNL1        0.0740
     26 N         138.2669  138.4701  162.8789 N.ar    1  UNL1       -0.2311
     27 C         138.6735  139.0335  164.2082 C.ar    1  UNL1        0.1471
     28 C         138.7922  138.4116  165.5681 C.ar    1  UNL1        0.0374
     29 C         139.2328  139.2422  166.7367 C.ar    1  UNL1        0.0085
     30 C         139.5548  140.6948  166.5456 C.ar    1  UNL1        0.0890
     31 C         139.4361  141.3167  165.1858 C.ar    1  UNL1        0.0849
     32 N         138.9955  140.4861  164.0171 N.ar    1  UNL1       -0.2929
     33 C         138.7879  140.8203  162.5696 C.ar    1  UNL1        0.0577
     34 C         139.0123  142.1884  161.9970 C.3     1  UNL1        0.0627
     35 C         138.8419  142.6485  160.5795 C.3     1  UNL1        0.0784
     36 C         139.9954  141.5255  167.7144 C.3     1  UNL1        0.4200
     37 F         140.4361  142.3561  168.8830 F       1  UNL1       -0.1658
     38 F         139.7483  140.3651  168.6322 F       1  UNL1       -0.1658
     39 F         140.2425  142.6858  166.7964 F       1  UNL1       -0.1658
@<TRIPOS>BOND
     1    10    11    1
     2    11    12   ar
     3    12    13   ar
     4    13    14   ar
     5    14    15   ar
     6    15     4    1
     7     4     5   ar
     8     5     6   ar
     9     6     7   ar
    10     7     3    1
    11     3     2    1
    12     2     1    1
    13     1    21    1
    14    21    22    1
    15    22    23    1
    16    23    24    1
    17    24    25    1
    18    25    26   ar
    19    26    27   ar
    20    27    28   ar
    21    28    29   ar
    22    29    30   ar
    23    30    36    1
    24    36    37    1
    25    36    38    1
    26    36    39    1
    27    30    31   ar
    28    31    32   ar
    29    32    33   ar
    30    33    34    1
    31    34    35    1
    32     7     8   ar
    33     8     9    1
    34    15    16   ar
    35    16    17   ar
    36    17    18   ar
    37    18    19   ar
    38    19    20   ar
    39    20    11   ar
    40    19    14   ar
    41     8     4   ar
    42    35    22    1
    43    33    25   ar
    44    32    27   ar
@<TRIPOS>MOLECULE
*****
 39 44 0 0 0
SMALL
GASTEIGER

@<TRIPOS>ATOM
      1 C         139.9857  144.0934  156.9492 C.3     1  UNL1        0.0294
      2 C         140.3022  145.4161  157.5821 C.3     1  UNL1        0.0666
      3 S         141.4741  145.5423  158.5098 S.3     1  UNL1       -0.0756
      4 C         141.3280  143.6312  161.8850 C.ar    1  UNL1        0.1669
      5 N         142.2733  142.7675  161.1035 N.ar    1  UNL1       -0.1282
      6 N         142.4430  143.3783  159.7441 N.ar    1  UNL1       -0.1221
      7 C         141.6027  144.6195  159.6853 C.ar    1  UNL1        0.1932
      8 N         140.9136  144.7757  161.0084 N.ar    1  UNL1       -0.2884
      9 C         139.9749  145.8823  161.3884 C.3     1  UNL1        0.1340
     10 C         143.0752  138.7555  166.4044 C.3     1  UNL1        0.0521
     11 C         142.5255  139.9147  165.6271 C.ar    1  UNL1        0.0593
     12 C         142.9771  140.1536  164.2167 C.ar    1  UNL1        0.0147
     13 C         142.4274  141.3128  163.4395 C.ar    1  UNL1        0.0028
     14 C         141.4262  142.2331  164.0726 C.ar    1  UNL1        0.0206
     15 C         140.8765  143.3923  163.2952 C.ar    1  UNL1        0.0374
     16 C         139.8754  144.3125  163.9284 C.ar    1  UNL1        0.0031
     17 C         139.4238  144.0735  165.3387 C.ar    1  UNL1        0.0016
     18 C         139.9735  142.9144  166.1159 C.ar    1  UNL1        0.0191
     19 C         140.9747  141.9941  165.4829 C.ar    1  UNL1        0.0810
     20 N         141.5243  140.8349  166.2602 N.ar    1  UNL1       -0.2497
     21 C         138.9026  143.2281  157.5218 C.3     1  UNL1        0.0730
     22 N         139.2401  142.1790  158.5395 N.3     1  UNL1       -0.2720
     23 C         140.2973  141.1952  158.1338 C.3     1  UNL1        0.0785
     24 C         140.8514  140.0418  158.9167 C.3     1  UNL1        0.0643
     25 C         140.4851  139.5875  160.2984 C.ar    1  UNL1        0.0740
     26 N         141.1186  138.4084  160.9756 N.ar    1  UNL1       -0.2311
     27 C         140.4993  138.2665  162.3345 C.ar    1  UNL1        0.1471
     28 C         140.7294  137.2844  163.4448 C.ar    1  UNL1        0.0374
     29 C         139.9434  137.3938  164.7176 C.ar    1  UNL1        0.0085
     30 C         138.9272  138.4852  164.8802 C.ar    1  UNL1        0.0890
     31 C         138.6971  139.4671  163.7699 C.ar    1  UNL1        0.0849
     32 N         139.4831  139.3578  162.4971 N.ar    1  UNL1       -0.2929
     33 C         139.4744  140.1742  161.2387 C.ar    1  UNL1        0.0577
     34 C         138.5803  141.3603  161.0294 C.3     1  UNL1        0.0627
     35 C         138.4761  142.2525  159.8281 C.3     1  UNL1        0.0784
     36 C         138.1411  138.5945  166.1531 C.3     1  UNL1        0.4200
     37 F         137.3551  138.7039  167.4259 F       1  UNL1       -0.1658
     38 F         138.0536  137.0990  166.2275 F       1  UNL1       -0.1658
     39 F         138.2288  140.0901  166.0786 F       1  UNL1       -0.1658
@<TRIPOS>BOND
     1    10    11    1
     2    11    12   ar
     3    12    13   ar
     4    13    14   ar
     5    14    15   ar
     6    15     4    1
     7     4     5   ar
     8     5     6   ar
     9     6     7   ar
    10     7     3    1
    11     3     2    1
    12     2     1    1
    13     1    21    1
    14    21    22    1
    15    22    23    1
    16    23    24    1
    17    24    25    1
    18    25    26   ar
    19    26    27   ar
    20    27    28   ar
    21    28    29   ar
    22    29    30   ar
    23    30    36    1
    24    36    37    1
    25    36    38    1
    26    36    39    1
    27    30    31   ar
    28    31    32   ar
    29    32    33   ar
    30    33    34    1
    31    34    35    1
    32     7     8   ar
    33     8     9    1
    34    15    16   ar
    35    16    17   ar
    36    17    18   ar
    37    18    19   ar
    38    19    20   ar
    39    20    11   ar
    40    19    14   ar
    41     8     4   ar
    42    35    22    1
    43    33    25   ar
    44    32    27   ar
@<TRIPOS>MOLECULE
*****
 39 44 0 0 0
SMALL
GASTEIGER

@<TRIPOS>ATOM
      1 C         139.9245  144.2714  157.2734 C.3     1  UNL1        0.0294
      2 C         140.2351  145.2660  158.3526 C.3     1  UNL1        0.0666
      3 S         141.4655  145.0996  159.1942 S.3     1  UNL1       -0.0756
      4 C         141.8710  142.7855  162.2839 C.ar    1  UNL1        0.1669
      5 N         140.6820  143.6052  162.6897 N.ar    1  UNL1       -0.1282
      6 N         140.3854  144.5717  161.5817 N.ar    1  UNL1       -0.1221
      7 C         141.3911  144.3495  160.4911 C.ar    1  UNL1        0.1932
      8 N         142.3091  143.2456  160.9252 N.ar    1  UNL1       -0.2884
      9 C         143.4629  142.6978  160.1385 C.3     1  UNL1        0.1340
     10 C         140.2564  140.2375  168.4606 C.3     1  UNL1        0.0521
     11 C         140.8196  140.6024  167.1191 C.ar    1  UNL1        0.0593
     12 C         140.1810  141.6909  166.3084 C.ar    1  UNL1        0.0147
     13 C         140.7444  142.0558  164.9669 C.ar    1  UNL1        0.0028
     14 C         141.9463  141.3321  164.4361 C.ar    1  UNL1        0.0206
     15 C         142.5095  141.6970  163.0946 C.ar    1  UNL1        0.0374
     16 C         143.7114  140.9732  162.5639 C.ar    1  UNL1        0.0031
     17 C         144.3500  139.8847  163.3746 C.ar    1  UNL1        0.0016
     18 C         143.7868  139.5198  164.7160 C.ar    1  UNL1        0.0191
     19 C         142.5849  140.2435  165.2468 C.ar    1  UNL1        0.0810
     20 N         142.0216  139.8786  166.5883 N.ar    1  UNL1       -0.2497
     21 C         139.0017  143.1229  157.5549 C.3     1  UNL1        0.0730
     22 N         139.3663  142.1054  158.5951 N.3     1  UNL1       -0.2720
     23 C         140.5570  141.2495  158.2789 C.3     1  UNL1        0.0785
     24 C         141.1675  140.1552  159.1035 C.3     1  UNL1        0.0643
     25 C         140.7381  139.6465  160.4476 C.ar    1  UNL1        0.0740
     26 N         141.4390  138.5366  161.1736 N.ar    1  UNL1       -0.2311
     27 C         140.7263  138.3107  162.4740 C.ar    1  UNL1        0.1471
     28 C         140.9692  137.3468  163.5974 C.ar    1  UNL1        0.0374
     29 C         140.0707  137.3532  164.7984 C.ar    1  UNL1        0.0085
     30 C         138.9293  138.3234  164.8762 C.ar    1  UNL1        0.0890
     31 C         138.6865  139.2872  163.7528 C.ar    1  UNL1        0.0849
     32 N         139.5849  139.2809  162.5517 N.ar    1  UNL1       -0.2929
     33 C         139.5922  140.1064  161.2993 C.ar    1  UNL1        0.0577
     34 C         138.5927  141.1887  161.0172 C.3     1  UNL1        0.0627
     35 C         138.4922  142.0783  159.8136 C.3     1  UNL1        0.0784
     36 C         138.0308  138.3297  166.0773 C.3     1  UNL1        0.4200
     37 F         137.1323  138.3360  167.2784 F       1  UNL1       -0.1658
     38 F         137.7787  139.7953  165.8810 F       1  UNL1       -0.1658
     39 F         138.2829  136.8641  166.2736 F       1  UNL1       -0.1658
@<TRIPOS>BOND
     1    10    11    1
     2    11    12   ar
     3    12    13   ar
     4    13    14   ar
     5    14    15   ar
     6    15     4    1
     7     4     5   ar
     8     5     6   ar
     9     6     7   ar
    10     7     3    1
    11     3     2    1
    12     2     1    1
    13     1    21    1
    14    21    22    1
    15    22    23    1
    16    23    24    1
    17    24    25    1
    18    25    26   ar
    19    26    27   ar
    20    27    28   ar
    21    28    29   ar
    22    29    30   ar
    23    30    36    1
    24    36    37    1
    25    36    38    1
    26    36    39    1
    27    30    31   ar
    28    31    32   ar
    29    32    33   ar
    30    33    34    1
    31    34    35    1
    32     7     8   ar
    33     8     9    1
    34    15    16   ar
    35    16    17   ar
    36    17    18   ar
    37    18    19   ar
    38    19    20   ar
    39    20    11   ar
    40    19    14   ar
    41     8     4   ar
    42    35    22    1
    43    33    25   ar
    44    32    27   ar
@<TRIPOS>MOLECULE
*****
 39 44 0 0 0
SMALL
GASTEIGER

@<TRIPOS>ATOM
      1 C         141.4076  144.8734  158.6900 C.3     1  UNL1        0.0294
      2 C         142.0826  143.6074  158.2521 C.3     1  UNL1        0.0666
      3 S         143.3529  143.1662  158.9165 S.3     1  UNL1       -0.0756
      4 C         143.1322  141.6793  162.4951 C.ar    1  UNL1        0.1669
      5 N         143.6224  143.0666  162.7873 N.ar    1  UNL1       -0.1282
      6 N         143.7647  143.7924  161.4824 N.ar    1  UNL1       -0.1221
      7 C         143.3625  142.8537  160.3836 C.ar    1  UNL1        0.1932
      8 N         142.9717  141.5479  161.0095 N.ar    1  UNL1       -0.2884
      9 C         142.5025  140.3250  160.2783 C.3     1  UNL1        0.1340
     10 C         143.3302  141.8363  169.3644 C.3     1  UNL1        0.0521
     11 C         143.2106  141.5301  167.9008 C.ar    1  UNL1        0.0593
     12 C         143.4910  142.5982  166.8857 C.ar    1  UNL1        0.0147
     13 C         143.3714  142.2919  165.4222 C.ar    1  UNL1        0.0028
     14 C         142.9715  140.9175  164.9737 C.ar    1  UNL1        0.0206
     15 C         142.8519  140.6112  163.5102 C.ar    1  UNL1        0.0374
     16 C         142.4520  139.2368  163.0619 C.ar    1  UNL1        0.0031
     17 C         142.1717  138.1687  164.0770 C.ar    1  UNL1        0.0016
     18 C         142.2912  138.4749  165.5404 C.ar    1  UNL1        0.0191
     19 C         142.6911  139.8493  165.9889 C.ar    1  UNL1        0.0810
     20 N         142.8107  140.1556  167.4524 N.ar    1  UNL1       -0.2497
     21 C         140.0953  144.8119  159.4139 C.3     1  UNL1        0.0730
     22 N         140.0309  144.2516  160.8038 N.3     1  UNL1       -0.2720
     23 C         140.4901  145.1699  161.8975 C.3     1  UNL1        0.0785
     24 C         140.5476  144.9105  163.3739 C.3     1  UNL1        0.0643
     25 C         140.1603  143.6690  164.1210 C.ar    1  UNL1        0.0740
     26 N         140.2662  143.5345  165.6113 N.ar    1  UNL1       -0.2311
     27 C         139.7911  142.1624  165.9878 C.ar    1  UNL1        0.1471
     28 C         139.6706  141.4706  167.3133 C.ar    1  UNL1        0.0374
     29 C         139.1507  140.0653  167.3812 C.ar    1  UNL1        0.0085
     30 C         138.7512  139.3517  166.1236 C.ar    1  UNL1        0.0890
     31 C         138.8716  140.0436  164.7982 C.ar    1  UNL1        0.0849
     32 N         139.3916  141.4489  164.7302 N.ar    1  UNL1       -0.2929
     33 C         139.6198  142.3800  163.5766 C.ar    1  UNL1        0.0577
     34 C         139.3331  142.0143  162.1504 C.3     1  UNL1        0.0627
     35 C         139.5161  142.8474  160.9164 C.3     1  UNL1        0.0784
     36 C         138.2312  137.9463  166.1916 C.3     1  UNL1        0.4200
     37 F         137.7112  136.5410  166.2596 F       1  UNL1       -0.1658
     38 F         139.0731  137.5775  165.0062 F       1  UNL1       -0.1658
     39 F         137.3893  138.3152  167.3770 F       1  UNL1       -0.1658
@<TRIPOS>BOND
     1    10    11    1
     2    11    12   ar
     3    12    13   ar
     4    13    14   ar
     5    14    15   ar
     6    15     4    1
     7     4     5   ar
     8     5     6   ar
     9     6     7   ar
    10     7     3    1
    11     3     2    1
    12     2     1    1
    13     1    21    1
    14    21    22    1
    15    22    23    1
    16    23    24    1
    17    24    25    1
    18    25    26   ar
    19    26    27   ar
    20    27    28   ar
    21    28    29   ar
    22    29    30   ar
    23    30    36    1
    24    36    37    1
    25    36    38    1
    26    36    39    1
    27    30    31   ar
    28    31    32   ar
    29    32    33   ar
    30    33    34    1
    31    34    35    1
    32     7     8   ar
    33     8     9    1
    34    15    16   ar
    35    16    17   ar
    36    17    18   ar
    37    18    19   ar
    38    19    20   ar
    39    20    11   ar
    40    19    14   ar
    41     8     4   ar
    42    35    22    1
    43    33    25   ar
    44    32    27   ar
@<TRIPOS>MOLECULE
*****
 39 44 0 0 0
SMALL
GASTEIGER

@<TRIPOS>ATOM
      1 C         140.4204  139.6918  157.7343 C.3     1  UNL1        0.0294
      2 C         138.9261  139.7171  157.6059 C.3     1  UNL1        0.0666
      3 S         138.1809  141.0085  157.7701 S.3     1  UNL1       -0.0756
      4 C         138.9816  143.0843  160.9506 C.ar    1  UNL1        0.1669
      5 N         139.5781  143.9508  159.8811 N.ar    1  UNL1       -0.1282
      6 N         139.3508  143.2785  158.5596 N.ar    1  UNL1       -0.1221
      7 C         138.6138  141.9967  158.8123 C.ar    1  UNL1        0.1932
      8 N         138.3857  141.8767  160.2899 N.ar    1  UNL1       -0.2884
      9 C         137.6846  140.7473  160.9850 C.3     1  UNL1        0.1340
     10 C         144.0078  142.6663  165.6211 C.3     1  UNL1        0.0521
     11 C         142.7511  142.8434  164.8213 C.ar    1  UNL1        0.0593
     12 C         142.7515  142.5531  163.3497 C.ar    1  UNL1        0.0147
     13 C         141.4949  142.7302  162.5500 C.ar    1  UNL1        0.0028
     14 C         140.2379  143.1975  163.2219 C.ar    1  UNL1        0.0206
     15 C         138.9812  143.3746  162.4221 C.ar    1  UNL1        0.0374
     16 C         137.7243  143.8420  163.0941 C.ar    1  UNL1        0.0031
     17 C         137.7239  144.1323  164.5658 C.ar    1  UNL1        0.0016
     18 C         138.9804  143.9552  165.3654 C.ar    1  UNL1        0.0191
     19 C         140.2375  143.4878  164.6936 C.ar    1  UNL1        0.0810
     20 N         141.4941  143.3108  165.4933 N.ar    1  UNL1       -0.2497
     21 C         141.0969  138.5268  158.3937 C.3     1  UNL1        0.0730
     22 N         141.5607  138.6355  159.8161 N.3     1  UNL1       -0.2720
     23 C         143.0192  138.3715  160.0470 C.3     1  UNL1        0.0785
     24 C         143.7818  138.4006  161.3384 C.3     1  UNL1        0.0643
     25 C         143.2745  138.7009  162.7175 C.ar    1  UNL1        0.0740
     26 N         144.1468  138.6976  163.9379 N.ar    1  UNL1       -0.2311
     27 C         143.2905  139.0408  165.1207 C.ar    1  UNL1        0.1471
     28 C         143.6060  139.1850  166.5801 C.ar    1  UNL1        0.0374
     29 C         142.5199  139.5447  167.5501 C.ar    1  UNL1        0.0085
     30 C         141.1184  139.7603  167.0608 C.ar    1  UNL1        0.0890
     31 C         140.8030  139.6161  165.6015 C.ar    1  UNL1        0.0849
     32 N         141.8890  139.2564  164.6314 N.ar    1  UNL1       -0.2929
     33 C         141.8791  139.0463  163.1462 C.ar    1  UNL1        0.0577
     34 C         140.6465  139.1766  162.3014 C.3     1  UNL1        0.0627
     35 C         140.5049  138.9938  160.8194 C.3     1  UNL1        0.0784
     36 C         140.0323  140.1200  168.0309 C.3     1  UNL1        0.4200
     37 F         138.9462  140.4797  169.0009 F       1  UNL1       -0.1658
     38 F         140.8201  139.4959  169.1444 F       1  UNL1       -0.1658
     39 F         139.2444  140.7440  166.9174 F       1  UNL1       -0.1658
@<TRIPOS>BOND
     1    10    11    1
     2    11    12   ar
     3    12    13   ar
     4    13    14   ar
     5    14    15   ar
     6    15     4    1
     7     4     5   ar
     8     5     6   ar
     9     6     7   ar
    10     7     3    1
    11     3     2    1
    12     2     1    1
    13     1    21    1
    14    21    22    1
    15    22    23    1
    16    23    24    1
    17    24    25    1
    18    25    26   ar
    19    26    27   ar
    20    27    28   ar
    21    28    29   ar
    22    29    30   ar
    23    30    36    1
    24    36    37    1
    25    36    38    1
    26    36    39    1
    27    30    31   ar
    28    31    32   ar
    29    32    33   ar
    30    33    34    1
    31    34    35    1
    32     7     8   ar
    33     8     9    1
    34    15    16   ar
    35    16    17   ar
    36    17    18   ar
    37    18    19   ar
    38    19    20   ar
    39    20    11   ar
    40    19    14   ar
    41     8     4   ar
    42    35    22    1
    43    33    25   ar
    44    32    27   ar
@<TRIPOS>MOLECULE
*****
 39 44 0 0 0
SMALL
GASTEIGER

@<TRIPOS>ATOM
      1 C         140.1563  145.2690  159.3223 C.3     1  UNL1        0.0294
      2 C         141.4730  145.3867  158.6132 C.3     1  UNL1        0.0666
      3 S         142.3684  144.1896  158.4908 S.3     1  UNL1       -0.0756
      4 C         142.1138  141.3537  161.1287 C.ar    1  UNL1        0.1669
      5 N         143.2706  142.1445  161.6640 N.ar    1  UNL1       -0.1282
      6 N         143.5067  143.3031  160.7410 N.ar    1  UNL1       -0.1221
      7 C         142.4959  143.2283  159.6352 C.ar    1  UNL1        0.1932
      8 N         141.6351  142.0235  159.8749 N.ar    1  UNL1       -0.2884
      9 C         140.4956  141.5684  159.0121 C.3     1  UNL1        0.1340
     10 C         143.8377  137.9269  166.8327 C.3     1  UNL1        0.0521
     11 C         143.2626  138.4730  165.5595 C.ar    1  UNL1        0.0593
     12 C         143.8393  139.7155  164.9483 C.ar    1  UNL1        0.0147
     13 C         143.2641  140.2615  163.6751 C.ar    1  UNL1        0.0028
     14 C         142.1123  139.5651  163.0131 C.ar    1  UNL1        0.0206
     15 C         141.5371  140.1112  161.7399 C.ar    1  UNL1        0.0374
     16 C         140.3853  139.4147  161.0780 C.ar    1  UNL1        0.0031
     17 C         139.8086  138.1722  161.6892 C.ar    1  UNL1        0.0016
     18 C         140.3837  137.6262  162.9623 C.ar    1  UNL1        0.0191
     19 C         141.5356  138.3226  163.6243 C.ar    1  UNL1        0.0810
     20 N         142.1107  137.7765  164.8975 N.ar    1  UNL1       -0.2497
     21 C         140.0350  145.6973  160.7547 C.3     1  UNL1        0.0730
     22 N         140.0248  144.6690  161.8467 N.3     1  UNL1       -0.2720
     23 C         138.9854  143.5950  161.7195 C.3     1  UNL1        0.0785
     24 C         138.7198  142.4373  162.6357 C.3     1  UNL1        0.0643
     25 C         139.4279  142.0679  163.9053 C.ar    1  UNL1        0.0740
     26 N         139.0632  140.8745  164.7378 N.ar    1  UNL1       -0.2311
     27 C         139.9864  140.8339  165.9193 C.ar    1  UNL1        0.1471
     28 C         140.0962  139.8840  167.0750 C.ar    1  UNL1        0.0374
     29 C         141.1414  140.1024  168.1285 C.ar    1  UNL1        0.0085
     30 C         142.0768  141.2707  168.0264 C.ar    1  UNL1        0.0890
     31 C         141.9669  142.2204  166.8706 C.ar    1  UNL1        0.0849
     32 N         140.9218  142.0021  165.8171 N.ar    1  UNL1       -0.2929
     33 C         140.5766  142.7648  164.5724 C.ar    1  UNL1        0.0577
     34 C         141.3008  144.0032  164.1346 C.3     1  UNL1        0.0627
     35 C         141.0551  144.8507  162.9215 C.3     1  UNL1        0.0784
     36 C         143.1220  141.4890  169.0799 C.3     1  UNL1        0.4200
     37 F         144.1670  141.7074  170.1335 F       1  UNL1       -0.1658
     38 F         143.7266  142.5847  168.2530 F       1  UNL1       -0.1658
     39 F         142.5172  140.3933  169.9069 F       1  UNL1       -0.1658
@<TRIPOS>BOND
     1    10    11    1
     2    11    12   ar
     3    12    13   ar
     4    13    14   ar
     5    14    15   ar
     6    15     4    1
     7     4     5   ar
     8     5     6   ar
     9     6     7   ar
    10     7     3    1
    11     3     2    1
    12     2     1    1
    13     1    21    1
    14    21    22    1
    15    22    23    1
    16    23    24    1
    17    24    25    1
    18    25    26   ar
    19    26    27   ar
    20    27    28   ar
    21    28    29   ar
    22    29    30   ar
    23    30    36    1
    24    36    37    1
    25    36    38    1
    26    36    39    1
    27    30    31   ar
    28    31    32   ar
    29    32    33   ar
    30    33    34    1
    31    34    35    1
    32     7     8   ar
    33     8     9    1
    34    15    16   ar
    35    16    17   ar
    36    17    18   ar
    37    18    19   ar
    38    19    20   ar
    39    20    11   ar
    40    19    14   ar
    41     8     4   ar
    42    35    22    1
    43    33    25   ar
    44    32    27   ar
@<TRIPOS>MOLECULE
*****
 39 44 0 0 0
SMALL
GASTEIGER

@<TRIPOS>ATOM
      1 C         138.7882  141.4056  155.7313 C.3     1  UNL1        0.0294
      2 C         139.8707  142.2602  156.3212 C.3     1  UNL1        0.0666
      3 S         139.5146  143.5052  157.0782 S.3     1  UNL1       -0.0756
      4 C         140.4222  143.7130  160.8464 C.ar    1  UNL1        0.1669
      5 N         138.9655  143.3618  160.9180 N.ar    1  UNL1       -0.1282
      6 N         138.4484  143.2413  159.5152 N.ar    1  UNL1       -0.1221
      7 C         139.5852  143.5179  158.5765 C.ar    1  UNL1        0.1932
      8 N         140.8050  143.8095  159.3993 N.ar    1  UNL1       -0.2884
      9 C         142.1686  144.1396  158.8682 C.3     1  UNL1        0.1340
     10 C         144.8275  139.4566  163.9651 C.3     1  UNL1        0.0521
     11 C         143.9544  140.5748  163.4779 C.ar    1  UNL1        0.0593
     12 C         143.0412  140.3582  162.3078 C.ar    1  UNL1        0.0147
     13 C         142.1682  141.4765  161.8207 C.ar    1  UNL1        0.0028
     14 C         142.2084  142.8114  162.5035 C.ar    1  UNL1        0.0206
     15 C         141.3354  143.9297  162.0163 C.ar    1  UNL1        0.0374
     16 C         141.3757  145.2646  162.6993 C.ar    1  UNL1        0.0031
     17 C         142.2890  145.4813  163.8693 C.ar    1  UNL1        0.0016
     18 C         143.1619  144.3631  164.3564 C.ar    1  UNL1        0.0191
     19 C         143.1217  143.0281  163.6736 C.ar    1  UNL1        0.0810
     20 N         143.9947  141.9098  164.1608 N.ar    1  UNL1       -0.2497
     21 C         137.9275  140.5626  156.6249 C.3     1  UNL1        0.0730
     22 N         138.5031  139.9652  157.8746 N.3     1  UNL1       -0.2720
     23 C         139.8020  139.2337  157.7078 C.3     1  UNL1        0.0785
     24 C         140.6223  138.5346  158.7512 C.3     1  UNL1        0.0643
     25 C         140.3463  138.3944  160.2188 C.ar    1  UNL1        0.0740
     26 N         141.2536  137.6642  161.1642 N.ar    1  UNL1       -0.2311
     27 C         140.6498  137.7372  162.5354 C.ar    1  UNL1        0.1471
     28 C         141.1006  137.1979  163.8606 C.ar    1  UNL1        0.0374
     29 C         140.2710  137.4338  165.0877 C.ar    1  UNL1        0.0085
     30 C         138.9905  138.2091  164.9898 C.ar    1  UNL1        0.0890
     31 C         138.5398  138.7484  163.6647 C.ar    1  UNL1        0.0849
     32 N         139.3694  138.5125  162.4375 N.ar    1  UNL1       -0.2929
     33 C         139.1819  138.9186  161.0058 C.ar    1  UNL1        0.0577
     34 C         138.0058  139.7125  160.5193 C.3     1  UNL1        0.0627
     35 C         137.7038  140.1783  159.1258 C.3     1  UNL1        0.0784
     36 C         138.1608  138.4450  166.2170 C.3     1  UNL1        0.4200
     37 F         137.3312  138.6810  167.4442 F       1  UNL1       -0.1658
     38 F         137.8611  136.9775  166.2965 F       1  UNL1       -0.1658
     39 F         138.4607  139.9126  166.1375 F       1  UNL1       -0.1658
@<TRIPOS>BOND
     1    10    11    1
     2    11    12   ar
     3    12    13   ar
     4    13    14   ar
     5    14    15   ar
     6    15     4    1
     7     4     5   ar
     8     5     6   ar
     9     6     7   ar
    10     7     3    1
    11     3     2    1
    12     2     1    1
    13     1    21    1
    14    21    22    1
    15    22    23    1
    16    23    24    1
    17    24    25    1
    18    25    26   ar
    19    26    27   ar
    20    27    28   ar
    21    28    29   ar
    22    29    30   ar
    23    30    36    1
    24    36    37    1
    25    36    38    1
    26    36    39    1
    27    30    31   ar
    28    31    32   ar
    29    32    33   ar
    30    33    34    1
    31    34    35    1
    32     7     8   ar
    33     8     9    1
    34    15    16   ar
    35    16    17   ar
    36    17    18   ar
    37    18    19   ar
    38    19    20   ar
    39    20    11   ar
    40    19    14   ar
    41     8     4   ar
    42    35    22    1
    43    33    25   ar
    44    32    27   ar
@<TRIPOS>MOLECULE
*****
 39 44 0 0 0
SMALL
GASTEIGER

@<TRIPOS>ATOM
      1 C         144.0175  142.4308  157.5901 C.3     1  UNL1        0.0294
      2 C         142.9168  142.8878  156.6791 C.3     1  UNL1        0.0666
      3 S         141.5561  143.1838  157.2366 S.3     1  UNL1       -0.0756
      4 C         140.7079  144.0698  160.9191 C.ar    1  UNL1        0.1669
      5 N         141.7061  145.1389  160.5863 N.ar    1  UNL1       -0.1282
      6 N         142.1453  144.9371  159.1663 N.ar    1  UNL1       -0.1221
      7 C         141.4186  143.7433  158.6215 C.ar    1  UNL1        0.1932
      8 N         140.5303  143.2073  159.7048 N.ar    1  UNL1       -0.2884
      9 C         139.6234  142.0176  159.5934 C.3     1  UNL1        0.1340
     10 C         143.1320  142.2625  167.0923 C.3     1  UNL1        0.0521
     11 C         142.3515  142.6704  165.8780 C.ar    1  UNL1        0.0593
     12 C         143.0494  142.8461  164.5619 C.ar    1  UNL1        0.0147
     13 C         142.2689  143.2540  163.3477 C.ar    1  UNL1        0.0028
     14 C         140.7905  143.4862  163.4494 C.ar    1  UNL1        0.0206
     15 C         140.0100  143.8941  162.2351 C.ar    1  UNL1        0.0374
     16 C         138.5316  144.1263  162.3370 C.ar    1  UNL1        0.0031
     17 C         137.8337  143.9506  163.6531 C.ar    1  UNL1        0.0016
     18 C         138.6141  143.5427  164.8672 C.ar    1  UNL1        0.0191
     19 C         140.0925  143.3105  164.7655 C.ar    1  UNL1        0.0810
     20 N         140.8730  142.9026  165.9798 N.ar    1  UNL1       -0.2497
     21 C         144.1448  140.9784  157.9425 C.3     1  UNL1        0.0730
     22 N         143.2172  140.3671  158.9505 N.3     1  UNL1       -0.2720
     23 C         142.2542  139.3492  158.4152 C.3     1  UNL1        0.0785
     24 C         141.2113  138.5672  159.1577 C.3     1  UNL1        0.0643
     25 C         140.8741  138.6101  160.6185 C.ar    1  UNL1        0.0740
     26 N         139.7996  137.7705  161.2436 N.ar    1  UNL1       -0.2311
     27 C         139.7577  138.0869  162.7092 C.ar    1  UNL1        0.1471
     28 C         138.9002  137.5662  163.8244 C.ar    1  UNL1        0.0374
     29 C         139.0914  138.0807  165.2203 C.ar    1  UNL1        0.0085
     30 C         140.1400  139.1159  165.5012 C.ar    1  UNL1        0.0890
     31 C         140.9974  139.6366  164.3860 C.ar    1  UNL1        0.0849
     32 N         140.8064  139.1222  162.9901 N.ar    1  UNL1       -0.2929
     33 C         141.4963  139.4454  161.6980 C.ar    1  UNL1        0.0577
     34 C         142.6094  140.4443  161.5830 C.3     1  UNL1        0.0627
     35 C         143.3753  140.8544  160.3602 C.3     1  UNL1        0.0784
     36 C         140.3311  139.6304  166.8972 C.3     1  UNL1        0.4200
     37 F         140.5223  140.1448  168.2932 F       1  UNL1       -0.1658
     38 F         138.9092  140.1075  166.9160 F       1  UNL1       -0.1658
     39 F         141.7531  139.1532  166.8783 F       1  UNL1       -0.1658
@<TRIPOS>BOND
     1    10    11    1
     2    11    12   ar
     3    12    13   ar
     4    13    14   ar
     5    14    15   ar
     6    15     4    1
     7     4     5   ar
     8     5     6   ar
     9     6     7   ar
    10     7     3    1
    11     3     2    1
    12     2     1    1
    13     1    21    1
    14    21    22    1
    15    22    23    1
    16    23    24    1
    17    24    25    1
    18    25    26   ar
    19    26    27   ar
    20    27    28   ar
    21    28    29   ar
    22    29    30   ar
    23    30    36    1
    24    36    37    1
    25    36    38    1
    26    36    39    1
    27    30    31   ar
    28    31    32   ar
    29    32    33   ar
    30    33    34    1
    31    34    35    1
    32     7     8   ar
    33     8     9    1
    34    15    16   ar
    35    16    17   ar
    36    17    18   ar
    37    18    19   ar
    38    19    20   ar
    39    20    11   ar
    40    19    14   ar
    41     8     4   ar
    42    35    22    1
    43    33    25   ar
    44    32    27   ar
