@<TRIPOS>MOLECULE
*****
 36 41 0 0 0
SMALL
GASTEIGER

@<TRIPOS>ATOM
      1 C         139.9785  144.3453  157.0323 C.2     1  UNL1        0.1012
      2 C         140.9627  145.1200  156.2068 C.2     1  UNL1        0.1182
      3 CL        140.8358  145.1409  154.7123 Cl      1  UNL1       -0.0771
      4 C         142.0737  145.8736  156.8758 C.2     1  UNL1        0.2481
      5 N         142.2006  145.8526  158.3704 N.2     1  UNL1       -0.0293
      6 C         141.2164  145.0780  159.1958 C.2     1  UNL1        0.4105
      7 N         141.0890  144.8741  160.6764 N.2     1  UNL1        0.0120
      8 C         139.8992  143.9944  160.9224 C.2     1  UNL1        0.3751
      9 N         139.2913  143.6546  159.5938 N.2     1  UNL1       -0.0450
     10 C         140.1054  144.3244  158.5267 C.3     1  UNL1        0.3609
     11 N         136.6454  142.0843  155.0251 N.3     1  UNL1       -0.2646
     12 C         137.7758  141.3383  155.6700 C.3     1  UNL1        0.0941
     13 C         138.8868  142.0919  156.3390 C.3     1  UNL1        0.1080
     14 N         138.8675  143.5917  156.3632 N.pl3   1  UNL1       -0.3034
     15 C         137.7372  144.3377  155.7183 C.3     1  UNL1        0.1080
     16 C         136.6262  143.5840  155.0493 C.3     1  UNL1        0.0941
     17 C         135.5345  141.3307  154.3561 C.3     1  UNL1        0.1222
     18 C         131.2729  139.8457  157.0975 C.3     1  UNL1        0.0754
     19 C         132.6201  139.8346  156.4378 C.ar    1  UNL1        0.1546
     20 C         133.2271  140.9602  155.6538 C.ar    1  UNL1        0.0550
     21 C         134.5788  140.5172  155.1777 C.ar    1  UNL1        0.1165
     22 N         134.8072  139.1180  155.6676 N.ar    1  UNL1       -0.0803
     23 O         133.5966  138.6961  156.4463 O.2     1  UNL1       -0.3580
     24 C         139.4042  143.5350  162.2618 C.ar    1  UNL1        0.0894
     25 C         137.9459  143.2481  162.4644 C.ar    1  UNL1        0.0078
     26 C         137.4510  142.7888  163.8038 C.ar    1  UNL1        0.0015
     27 C         138.4143  142.6163  164.9406 C.ar    1  UNL1        0.0145
     28 C         139.8726  142.9032  164.7380 C.ar    1  UNL1        0.0482
     29 C         140.3675  143.3625  163.3986 C.ar    1  UNL1        0.0222
     30 N         140.8359  142.7308  165.8747 N.pl3   1  UNL1       -0.3046
     31 C         140.3297  142.6809  167.2858 C.3     1  UNL1        0.1081
     32 C         141.2929  142.5085  168.4226 C.3     1  UNL1        0.0938
     33 N         142.7625  142.3859  168.1483 N.3     1  UNL1       -0.2686
     34 C         143.7260  142.2134  169.2851 C.3     1  UNL1        0.0897
     35 C         143.2688  142.4357  166.7372 C.3     1  UNL1        0.0938
     36 C         142.3055  142.6081  165.6004 C.3     1  UNL1        0.1081
@<TRIPOS>BOND
     1    18    19    1
     2    19    20   ar
     3    20    21   ar
     4    21    17    1
     5    17    11    1
     6    11    12    1
     7    12    13    1
     8    13    14    1
     9    14     1    1
    10     1     2    2
    11     2     3    1
    12     2     4    1
    13     4     5    2
    14     5     6    1
    15     6     7    2
    16     7     8    1
    17     8    24    1
    18    24    25   ar
    19    25    26   ar
    20    26    27   ar
    21    27    28   ar
    22    28    30    1
    23    30    31    1
    24    31    32    1
    25    32    33    1
    26    33    34    1
    27    33    35    1
    28    35    36    1
    29    28    29   ar
    30     8     9    2
    31     9    10    1
    32    14    15    1
    33    15    16    1
    34    21    22   ar
    35    22    23   ar
    36    23    19   ar
    37    16    11    1
    38    10     1    1
    39    10     6    1
    40    29    24   ar
    41    36    30    1
@<TRIPOS>MOLECULE
*****
 36 41 0 0 0
SMALL
GASTEIGER

@<TRIPOS>ATOM
      1 C         142.4147  140.2971  160.7562 C.2     1  UNL1        0.1012
      2 C         143.1145  141.6057  160.9751 C.2     1  UNL1        0.1182
      3 CL        142.8812  142.3786  162.2393 Cl      1  UNL1       -0.0771
      4 C         144.0474  142.1414  159.9298 C.2     1  UNL1        0.2481
      5 N         144.2807  141.3685  158.6656 N.2     1  UNL1       -0.0293
      6 C         143.5809  140.0599  158.4467 C.2     1  UNL1        0.4105
      7 N         143.6130  139.0825  157.3093 N.2     1  UNL1        0.0120
      8 C         142.6999  137.9428  157.6516 C.2     1  UNL1        0.3751
      9 N         142.1034  138.2158  159.0006 N.2     1  UNL1       -0.0450
     10 C         142.6479  139.5242  159.4920 C.3     1  UNL1        0.3609
     11 N         139.6157  138.6902  163.8920 N.3     1  UNL1       -0.2646
     12 C         139.1503  139.7591  162.9480 C.3     1  UNL1        0.0941
     13 C         140.0833  140.2947  161.9028 C.3     1  UNL1        0.1080
     14 N         141.4817  139.7615  161.8015 N.pl3   1  UNL1       -0.3034
     15 C         141.9471  138.6927  162.7454 C.3     1  UNL1        0.1080
     16 C         141.0140  138.1571  163.7907 C.3     1  UNL1        0.0941
     17 C         138.6827  138.1546  164.9373 C.3     1  UNL1        0.1222
     18 C         140.0306  140.9827  169.1878 C.3     1  UNL1        0.0754
     19 C         139.3077  140.0398  168.2721 C.ar    1  UNL1        0.1546
     20 C         139.6804  139.7300  166.8525 C.ar    1  UNL1        0.0550
     21 C         138.6882  138.7399  166.3184 C.ar    1  UNL1        0.1165
     22 N         137.7023  138.4378  167.4079 N.ar    1  UNL1       -0.0803
     23 O         138.0852  139.2412  168.6153 O.2     1  UNL1       -0.3580
     24 C         142.4305  136.7410  156.7953 C.ar    1  UNL1        0.0894
     25 C         141.6236  136.8812  155.5387 C.ar    1  UNL1        0.0078
     26 C         141.3542  135.6793  154.6824 C.ar    1  UNL1        0.0015
     27 C         141.8918  134.3374  155.0828 C.ar    1  UNL1        0.0145
     28 C         142.6987  134.1973  156.3395 C.ar    1  UNL1        0.0482
     29 C         142.9680  135.3991  157.1957 C.ar    1  UNL1        0.0222
     30 N         143.2363  132.8554  156.7400 N.pl3   1  UNL1       -0.3046
     31 C         142.5350  131.6047  156.2995 C.3     1  UNL1        0.1081
     32 C         143.0725  130.2628  156.6999 C.3     1  UNL1        0.0938
     33 N         144.3112  130.1716  157.5408 N.3     1  UNL1       -0.2686
     34 C         144.8489  128.8297  157.9413 C.3     1  UNL1        0.0897
     35 C         145.0125  131.4223  157.9813 C.3     1  UNL1        0.0938
     36 C         144.4750  132.7642  157.5808 C.3     1  UNL1        0.1081
@<TRIPOS>BOND
     1    18    19    1
     2    19    20   ar
     3    20    21   ar
     4    21    17    1
     5    17    11    1
     6    11    12    1
     7    12    13    1
     8    13    14    1
     9    14     1    1
    10     1     2    2
    11     2     3    1
    12     2     4    1
    13     4     5    2
    14     5     6    1
    15     6     7    2
    16     7     8    1
    17     8    24    1
    18    24    25   ar
    19    25    26   ar
    20    26    27   ar
    21    27    28   ar
    22    28    30    1
    23    30    31    1
    24    31    32    1
    25    32    33    1
    26    33    34    1
    27    33    35    1
    28    35    36    1
    29    28    29   ar
    30     8     9    2
    31     9    10    1
    32    14    15    1
    33    15    16    1
    34    21    22   ar
    35    22    23   ar
    36    23    19   ar
    37    16    11    1
    38    10     1    1
    39    10     6    1
    40    29    24   ar
    41    36    30    1
@<TRIPOS>MOLECULE
*****
 36 41 0 0 0
SMALL
GASTEIGER

@<TRIPOS>ATOM
      1 C         139.6814  139.3818  161.4009 C.2     1  UNL1        0.1012
      2 C         138.3502  140.0494  161.5802 C.2     1  UNL1        0.1182
      3 CL        137.8963  140.4617  162.9492 Cl      1  UNL1       -0.0771
      4 C         137.4730  140.3046  160.3907 C.2     1  UNL1        0.2481
      5 N         137.9268  139.8923  159.0216 N.2     1  UNL1       -0.0293
      6 C         139.2581  139.2248  158.8424 C.2     1  UNL1        0.4105
      7 N         139.9672  138.7107  157.6246 N.2     1  UNL1        0.0120
      8 C         141.2827  138.1377  158.0616 C.2     1  UNL1        0.3751
      9 N         141.3867  138.2977  159.5495 N.2     1  UNL1       -0.0450
     10 C         140.1354  138.9695  160.0320 C.3     1  UNL1        0.3609
     11 N         142.3134  138.6161  164.9698 N.3     1  UNL1       -0.2646
     12 C         142.5825  139.7917  164.0778 C.3     1  UNL1        0.0941
     13 C         141.7053  140.0469  162.8882 C.3     1  UNL1        0.1080
     14 N         140.5587  139.1265  162.5905 N.pl3   1  UNL1       -0.3034
     15 C         140.2896  137.9510  163.4825 C.3     1  UNL1        0.1080
     16 C         141.1669  137.6958  164.6721 C.3     1  UNL1        0.0941
     17 C         143.1907  138.3609  166.1593 C.3     1  UNL1        0.1222
     18 C         142.3984  142.4511  169.4035 C.3     1  UNL1        0.0754
     19 C         142.6646  141.0660  168.8927 C.ar    1  UNL1        0.1546
     20 C         142.7475  140.6586  167.4514 C.ar    1  UNL1        0.0550
     21 C         143.0288  139.1860  167.4015 C.ar    1  UNL1        0.1165
     22 N         143.1198  138.6834  168.8119 N.ar    1  UNL1       -0.0803
     23 O         142.8947  139.8453  169.7335 O.2     1  UNL1       -0.3580
     24 C         142.3134  137.5142  157.1678 C.ar    1  UNL1        0.0894
     25 C         143.1028  138.3703  156.2223 C.ar    1  UNL1        0.0078
     26 C         144.1335  137.7467  155.3284 C.ar    1  UNL1        0.0015
     27 C         144.3748  136.2672  155.3801 C.ar    1  UNL1        0.0145
     28 C         143.5854  135.4111  156.3256 C.ar    1  UNL1        0.0482
     29 C         142.5547  136.0347  157.2194 C.ar    1  UNL1        0.0222
     30 N         143.8266  133.9316  156.3773 N.pl3   1  UNL1       -0.3046
     31 C         143.4559  133.0699  155.2068 C.3     1  UNL1        0.1081
     32 C         143.6971  131.5904  155.2584 C.3     1  UNL1        0.0938
     33 N         144.3090  130.9725  156.4806 N.3     1  UNL1       -0.2686
     34 C         144.5503  129.4928  156.5323 C.3     1  UNL1        0.0897
     35 C         144.6798  131.8341  157.6511 C.3     1  UNL1        0.0938
     36 C         144.4386  133.3137  157.5995 C.3     1  UNL1        0.1081
@<TRIPOS>BOND
     1    18    19    1
     2    19    20   ar
     3    20    21   ar
     4    21    17    1
     5    17    11    1
     6    11    12    1
     7    12    13    1
     8    13    14    1
     9    14     1    1
    10     1     2    2
    11     2     3    1
    12     2     4    1
    13     4     5    2
    14     5     6    1
    15     6     7    2
    16     7     8    1
    17     8    24    1
    18    24    25   ar
    19    25    26   ar
    20    26    27   ar
    21    27    28   ar
    22    28    30    1
    23    30    31    1
    24    31    32    1
    25    32    33    1
    26    33    34    1
    27    33    35    1
    28    35    36    1
    29    28    29   ar
    30     8     9    2
    31     9    10    1
    32    14    15    1
    33    15    16    1
    34    21    22   ar
    35    22    23   ar
    36    23    19   ar
    37    16    11    1
    38    10     1    1
    39    10     6    1
    40    29    24   ar
    41    36    30    1
@<TRIPOS>MOLECULE
*****
 36 41 0 0 0
SMALL
GASTEIGER

@<TRIPOS>ATOM
      1 C         143.6837  140.6181  160.0964 C.2     1  UNL1        0.1012
      2 C         144.2378  142.0057  159.9642 C.2     1  UNL1        0.1182
      3 CL        144.4530  142.8470  161.1873 Cl      1  UNL1       -0.0771
      4 C         144.5768  142.5520  158.6090 C.2     1  UNL1        0.2481
      5 N         144.3616  141.7107  157.3859 N.2     1  UNL1       -0.0293
      6 C         143.8075  140.3231  157.5181 C.2     1  UNL1        0.4105
      7 N         143.4898  139.2680  156.5003 N.2     1  UNL1        0.0120
      8 C         142.9545  138.0697  157.2265 C.2     1  UNL1        0.3751
      9 N         142.9413  138.3841  158.6931 N.2     1  UNL1       -0.0450
     10 C         143.4685  139.7768  158.8733 C.3     1  UNL1        0.3609
     11 N         142.6666  138.9793  164.1621 N.3     1  UNL1       -0.2646
     12 C         141.5964  139.6018  163.3151 C.3     1  UNL1        0.0941
     13 C         141.9354  140.1480  161.9600 C.3     1  UNL1        0.1080
     14 N         143.3447  140.0719  161.4516 N.pl3   1  UNL1       -0.3034
     15 C         144.4148  139.4494  162.2986 C.3     1  UNL1        0.1080
     16 C         144.0758  138.9032  163.6538 C.3     1  UNL1        0.0941
     17 C         142.3276  138.4331  165.5173 C.3     1  UNL1        0.1222
     18 C         142.4792  142.5539  168.8154 C.3     1  UNL1        0.0754
     19 C         142.6128  141.1684  168.2564 C.ar    1  UNL1        0.1546
     20 C         142.2459  140.7391  166.8667 C.ar    1  UNL1        0.0550
     21 C         142.5431  139.2743  166.7405 C.ar    1  UNL1        0.1165
     22 N         143.0937  138.7982  168.0521 N.ar    1  UNL1       -0.0803
     23 O         143.1367  139.9688  168.9890 O.2     1  UNL1       -0.3580
     24 C         142.5103  136.7828  156.5967 C.ar    1  UNL1        0.0894
     25 C         141.4671  136.7961  155.5189 C.ar    1  UNL1        0.0078
     26 C         141.0230  135.5091  154.8892 C.ar    1  UNL1        0.0015
     27 C         141.6221  134.2090  155.3371 C.ar    1  UNL1        0.0145
     28 C         142.6653  134.1957  156.4148 C.ar    1  UNL1        0.0482
     29 C         143.1094  135.4826  157.0446 C.ar    1  UNL1        0.0222
     30 N         143.2644  132.8955  156.8628 N.pl3   1  UNL1       -0.3046
     31 C         144.5475  132.8893  157.6397 C.3     1  UNL1        0.1081
     32 C         145.1467  131.5892  158.0877 C.3     1  UNL1        0.0938
     33 N         144.4627  130.2954  157.7588 N.3     1  UNL1       -0.2686
     34 C         145.0619  128.9952  158.2068 C.3     1  UNL1        0.0897
     35 C         143.1796  130.3016  156.9819 C.3     1  UNL1        0.0938
     36 C         142.5805  131.6017  156.5338 C.3     1  UNL1        0.1081
@<TRIPOS>BOND
     1    18    19    1
     2    19    20   ar
     3    20    21   ar
     4    21    17    1
     5    17    11    1
     6    11    12    1
     7    12    13    1
     8    13    14    1
     9    14     1    1
    10     1     2    2
    11     2     3    1
    12     2     4    1
    13     4     5    2
    14     5     6    1
    15     6     7    2
    16     7     8    1
    17     8    24    1
    18    24    25   ar
    19    25    26   ar
    20    26    27   ar
    21    27    28   ar
    22    28    30    1
    23    30    31    1
    24    31    32    1
    25    32    33    1
    26    33    34    1
    27    33    35    1
    28    35    36    1
    29    28    29   ar
    30     8     9    2
    31     9    10    1
    32    14    15    1
    33    15    16    1
    34    21    22   ar
    35    22    23   ar
    36    23    19   ar
    37    16    11    1
    38    10     1    1
    39    10     6    1
    40    29    24   ar
    41    36    30    1
@<TRIPOS>MOLECULE
*****
 36 41 0 0 0
SMALL
GASTEIGER

@<TRIPOS>ATOM
      1 C         139.8166  142.9946  160.6337 C.2     1  UNL1        0.1012
      2 C         140.7383  144.1430  160.9191 C.2     1  UNL1        0.1182
      3 CL        141.2910  144.3356  162.3003 Cl      1  UNL1       -0.0771
      4 C         141.1074  145.0987  159.8236 C.2     1  UNL1        0.2481
      5 N         140.5548  144.9061  158.4424 N.2     1  UNL1       -0.0293
      6 C         139.6330  143.7577  158.1570 C.2     1  UNL1        0.4105
      7 N         138.9375  143.3167  156.9033 N.2     1  UNL1        0.0120
      8 C         138.1385  142.0884  157.2241 C.2     1  UNL1        0.3751
      9 N         138.3402  141.7703  158.6760 N.2     1  UNL1       -0.0450
     10 C         139.2639  142.8020  159.2526 C.3     1  UNL1        0.3609
     11 N         138.7093  140.1274  163.9205 N.3     1  UNL1       -0.2646
     12 C         139.9857  139.9354  163.1561 C.3     1  UNL1        0.0941
     13 C         140.3547  140.8911  162.0605 C.3     1  UNL1        0.1080
     14 N         139.4475  142.0389  161.7293 N.pl3   1  UNL1       -0.3034
     15 C         138.1712  142.2309  162.4936 C.3     1  UNL1        0.1080
     16 C         137.8022  141.2751  163.5892 C.3     1  UNL1        0.0941
     17 C         138.3403  139.1717  165.0160 C.3     1  UNL1        0.1222
     18 C         140.6034  141.3302  169.2705 C.3     1  UNL1        0.0754
     19 C         139.7248  140.4860  168.3956 C.ar    1  UNL1        0.1546
     20 C         139.7129  140.4864  166.8956 C.ar    1  UNL1        0.0550
     21 C         138.6846  139.4939  166.4401 C.ar    1  UNL1        0.1165
     22 N         138.0610  138.8802  167.6584 N.ar    1  UNL1       -0.0803
     23 O         138.7039  139.4933  168.8670 O.2     1  UNL1       -0.3580
     24 C         137.2872  141.3142  156.2619 C.ar    1  UNL1        0.0894
     25 C         137.8847  140.7797  154.9941 C.ar    1  UNL1        0.0078
     26 C         137.0334  140.0054  154.0319 C.ar    1  UNL1        0.0015
     27 C         135.5845  139.7656  154.3375 C.ar    1  UNL1        0.0145
     28 C         134.9870  140.3001  155.6053 C.ar    1  UNL1        0.0482
     29 C         135.8384  141.0744  156.5674 C.ar    1  UNL1        0.0222
     30 N         133.5382  140.0604  155.9109 N.pl3   1  UNL1       -0.3046
     31 C         132.5212  141.1182  155.6000 C.3     1  UNL1        0.1081
     32 C         131.0723  140.8785  155.9057 C.3     1  UNL1        0.0938
     33 N         130.6405  139.5811  156.5221 N.3     1  UNL1       -0.2686
     34 C         129.1917  139.3413  156.8278 C.3     1  UNL1        0.0897
     35 C         131.6576  138.5232  156.8330 C.3     1  UNL1        0.0938
     36 C         133.1064  138.7629  156.5274 C.3     1  UNL1        0.1081
@<TRIPOS>BOND
     1    18    19    1
     2    19    20   ar
     3    20    21   ar
     4    21    17    1
     5    17    11    1
     6    11    12    1
     7    12    13    1
     8    13    14    1
     9    14     1    1
    10     1     2    2
    11     2     3    1
    12     2     4    1
    13     4     5    2
    14     5     6    1
    15     6     7    2
    16     7     8    1
    17     8    24    1
    18    24    25   ar
    19    25    26   ar
    20    26    27   ar
    21    27    28   ar
    22    28    30    1
    23    30    31    1
    24    31    32    1
    25    32    33    1
    26    33    34    1
    27    33    35    1
    28    35    36    1
    29    28    29   ar
    30     8     9    2
    31     9    10    1
    32    14    15    1
    33    15    16    1
    34    21    22   ar
    35    22    23   ar
    36    23    19   ar
    37    16    11    1
    38    10     1    1
    39    10     6    1
    40    29    24   ar
    41    36    30    1
@<TRIPOS>MOLECULE
*****
 36 41 0 0 0
SMALL
GASTEIGER

@<TRIPOS>ATOM
      1 C         140.0209  144.1736  156.6489 C.2     1  UNL1        0.1012
      2 C         140.9487  144.7668  155.6305 C.2     1  UNL1        0.1182
      3 CL        140.6802  144.5718  154.1676 Cl      1  UNL1       -0.0771
      4 C         142.1450  145.5550  156.0749 C.2     1  UNL1        0.2481
      5 N         142.4136  145.7500  157.5378 N.2     1  UNL1       -0.0293
      6 C         141.4857  145.1568  158.5562 C.2     1  UNL1        0.4105
      7 N         141.4934  145.1817  160.0560 N.2     1  UNL1        0.0120
      8 C         140.3018  144.4088  160.5384 C.2     1  UNL1        0.3751
      9 N         139.5577  143.9063  159.3369 N.2     1  UNL1       -0.0450
     10 C         140.2894  144.3686  158.1118 C.3     1  UNL1        0.3609
     11 N         136.4318  141.8090  155.3156 N.3     1  UNL1       -0.2646
     12 C         136.3897  143.3084  155.3014 C.3     1  UNL1        0.0941
     13 C         137.5859  144.0966  155.7458 C.3     1  UNL1        0.1080
     14 N         138.8245  143.3854  156.2045 N.pl3   1  UNL1       -0.3034
     15 C         138.8667  141.8861  156.2187 C.3     1  UNL1        0.1080
     16 C         137.6703  141.0979  155.7742 C.3     1  UNL1        0.0941
     17 C         135.2355  141.0209  154.8712 C.3     1  UNL1        0.1222
     18 C         130.7358  139.7981  157.3490 C.3     1  UNL1        0.0754
     19 C         132.1939  139.9366  157.0250 C.ar    1  UNL1        0.1546
     20 C         132.7670  140.5826  155.7984 C.ar    1  UNL1        0.0550
     21 C         134.2621  140.4987  155.8861 C.ar    1  UNL1        0.1165
     22 N         134.6130  139.8009  157.1667 N.ar    1  UNL1       -0.0803
     23 O         133.3347  139.4535  157.8706 O.2     1  UNL1       -0.3580
     24 C         139.9211  144.1789  161.9710 C.ar    1  UNL1        0.0894
     25 C         139.7760  145.3438  162.9047 C.ar    1  UNL1        0.0078
     26 C         139.3953  145.1138  164.3373 C.ar    1  UNL1        0.0015
     27 C         139.1597  143.7189  164.8361 C.ar    1  UNL1        0.0145
     28 C         139.3048  142.5540  163.9024 C.ar    1  UNL1        0.0482
     29 C         139.6855  142.7840  162.4698 C.ar    1  UNL1        0.0222
     30 N         139.0693  141.1591  164.4011 N.pl3   1  UNL1       -0.3046
     31 C         138.8104  140.0482  163.4271 C.3     1  UNL1        0.1081
     32 C         138.5748  138.6532  163.9257 C.3     1  UNL1        0.0938
     33 N         138.5982  138.3692  165.3984 N.3     1  UNL1       -0.2686
     34 C         138.3626  136.9743  165.8971 C.3     1  UNL1        0.0897
     35 C         138.8571  139.4802  166.3724 C.3     1  UNL1        0.0938
     36 C         139.0927  140.8751  165.8738 C.3     1  UNL1        0.1081
@<TRIPOS>BOND
     1    18    19    1
     2    19    20   ar
     3    20    21   ar
     4    21    17    1
     5    17    11    1
     6    11    12    1
     7    12    13    1
     8    13    14    1
     9    14     1    1
    10     1     2    2
    11     2     3    1
    12     2     4    1
    13     4     5    2
    14     5     6    1
    15     6     7    2
    16     7     8    1
    17     8    24    1
    18    24    25   ar
    19    25    26   ar
    20    26    27   ar
    21    27    28   ar
    22    28    30    1
    23    30    31    1
    24    31    32    1
    25    32    33    1
    26    33    34    1
    27    33    35    1
    28    35    36    1
    29    28    29   ar
    30     8     9    2
    31     9    10    1
    32    14    15    1
    33    15    16    1
    34    21    22   ar
    35    22    23   ar
    36    23    19   ar
    37    16    11    1
    38    10     1    1
    39    10     6    1
    40    29    24   ar
    41    36    30    1
@<TRIPOS>MOLECULE
*****
 36 41 0 0 0
SMALL
GASTEIGER

@<TRIPOS>ATOM
      1 C         142.9347  139.1307  158.5053 C.2     1  UNL1        0.1012
      2 C         143.6728  140.4341  158.5844 C.2     1  UNL1        0.1182
      3 CL        143.3915  141.3883  159.7071 Cl      1  UNL1       -0.0771
      4 C         144.6921  140.7833  157.5409 C.2     1  UNL1        0.2481
      5 N         144.9734  139.8291  156.4182 N.2     1  UNL1       -0.0293
      6 C         144.2353  138.5257  156.3391 C.2     1  UNL1        0.4105
      7 N         144.2995  137.3939  155.3567 N.2     1  UNL1        0.0120
      8 C         143.3198  136.3453  155.7932 C.2     1  UNL1        0.3751
      9 N         142.6502  136.8289  157.0453 N.2     1  UNL1       -0.0450
     10 C         143.2160  138.1765  157.3827 C.3     1  UNL1        0.3609
     11 N         139.8768  138.0830  161.6361 N.3     1  UNL1       -0.2646
     12 C         141.3326  137.8308  161.8955 C.3     1  UNL1        0.0941
     13 C         142.3518  138.1800  160.8520 C.3     1  UNL1        0.1080
     14 N         141.9154  138.7815  159.5489 N.pl3   1  UNL1       -0.3034
     15 C         140.4597  139.0337  159.2894 C.3     1  UNL1        0.1080
     16 C         139.4404  138.6844  160.3331 C.3     1  UNL1        0.0941
     17 C         138.8575  137.7338  162.6796 C.3     1  UNL1        0.1222
     18 C         138.4924  139.3808  167.6832 C.3     1  UNL1        0.0754
     19 C         138.5177  139.3690  166.1834 C.ar    1  UNL1        0.1546
     20 C         138.7411  138.1665  165.3149 C.ar    1  UNL1        0.0550
     21 C         138.6855  138.6119  163.8836 C.ar    1  UNL1        0.1165
     22 N         138.4277  140.0895  163.8675 N.ar    1  UNL1       -0.0803
     23 O         138.3240  140.5574  165.2889 O.2     1  UNL1       -0.3580
     24 C         143.0561  135.0418  155.0994 C.ar    1  UNL1        0.0894
     25 C         142.3017  135.0213  153.8031 C.ar    1  UNL1        0.0078
     26 C         142.0380  133.7178  153.1093 C.ar    1  UNL1        0.0015
     27 C         142.5286  132.4347  153.7118 C.ar    1  UNL1        0.0145
     28 C         143.2830  132.4552  155.0081 C.ar    1  UNL1        0.0482
     29 C         143.5467  133.7587  155.7019 C.ar    1  UNL1        0.0222
     30 N         143.7737  131.1722  155.6107 N.pl3   1  UNL1       -0.3046
     31 C         144.5511  130.1998  154.7740 C.3     1  UNL1        0.1081
     32 C         145.0419  128.9168  155.3765 C.3     1  UNL1        0.0938
     33 N         144.7551  128.6061  156.8157 N.3     1  UNL1       -0.2686
     34 C         145.2458  127.3231  157.4183 C.3     1  UNL1        0.0897
     35 C         143.9776  129.5785  157.6524 C.3     1  UNL1        0.0938
     36 C         143.4869  130.8615  157.0499 C.3     1  UNL1        0.1081
@<TRIPOS>BOND
     1    18    19    1
     2    19    20   ar
     3    20    21   ar
     4    21    17    1
     5    17    11    1
     6    11    12    1
     7    12    13    1
     8    13    14    1
     9    14     1    1
    10     1     2    2
    11     2     3    1
    12     2     4    1
    13     4     5    2
    14     5     6    1
    15     6     7    2
    16     7     8    1
    17     8    24    1
    18    24    25   ar
    19    25    26   ar
    20    26    27   ar
    21    27    28   ar
    22    28    30    1
    23    30    31    1
    24    31    32    1
    25    32    33    1
    26    33    34    1
    27    33    35    1
    28    35    36    1
    29    28    29   ar
    30     8     9    2
    31     9    10    1
    32    14    15    1
    33    15    16    1
    34    21    22   ar
    35    22    23   ar
    36    23    19   ar
    37    16    11    1
    38    10     1    1
    39    10     6    1
    40    29    24   ar
    41    36    30    1
@<TRIPOS>MOLECULE
*****
 36 41 0 0 0
SMALL
GASTEIGER

@<TRIPOS>ATOM
      1 C         139.9107  140.1172  157.5808 C.2     1  UNL1        0.1012
      2 C         139.4613  141.1624  156.6032 C.2     1  UNL1        0.1182
      3 CL        139.8840  141.0765  155.1665 Cl      1  UNL1       -0.0771
      4 C         138.5895  142.2933  157.0622 C.2     1  UNL1        0.2481
      5 N         138.1668  142.3792  158.4989 N.2     1  UNL1       -0.0293
      6 C         138.6162  141.3341  159.4765 C.2     1  UNL1        0.4105
      7 N         138.3614  141.1569  160.9441 N.2     1  UNL1        0.0120
      8 C         139.0759  139.9163  161.3920 C.2     1  UNL1        0.3751
      9 N         139.7722  139.3269  160.2014 N.2     1  UNL1       -0.0450
     10 C         139.4881  140.2031  159.0175 C.3     1  UNL1        0.3609
     11 N         142.5265  136.7244  156.2038 N.3     1  UNL1       -0.2646
     12 C         143.1445  138.0249  156.6246 C.3     1  UNL1        0.0941
     13 C         142.2726  139.1557  157.0836 C.3     1  UNL1        0.1080
     14 N         140.7826  138.9863  157.1218 N.pl3   1  UNL1       -0.3034
     15 C         140.1646  137.6859  156.7010 C.3     1  UNL1        0.1080
     16 C         141.0366  136.5550  156.2420 C.3     1  UNL1        0.0941
     17 C         143.3984  135.5935  155.7448 C.3     1  UNL1        0.1222
     18 C         141.6232  130.6734  155.0215 C.3     1  UNL1        0.0754
     19 C         142.1669  131.9134  155.6672 C.ar    1  UNL1        0.1546
     20 C         142.4529  133.2141  154.9769 C.ar    1  UNL1        0.0550
     21 C         142.9829  134.1749  155.9996 C.ar    1  UNL1        0.1165
     22 N         143.0244  133.4680  157.3220 N.ar    1  UNL1       -0.0803
     23 O         142.5201  132.0704  157.1166 O.2     1  UNL1       -0.3580
     24 C         139.0913  139.3625  162.7860 C.ar    1  UNL1        0.0894
     25 C         138.8040  137.9088  163.0186 C.ar    1  UNL1        0.0078
     26 C         138.8194  137.3550  164.4126 C.ar    1  UNL1        0.0015
     27 C         139.1222  138.2549  165.5739 C.ar    1  UNL1        0.0145
     28 C         139.4096  139.7086  165.3412 C.ar    1  UNL1        0.0482
     29 C         139.3941  140.2624  163.9472 C.ar    1  UNL1        0.0222
     30 N         139.7124  140.6085  166.5024 N.pl3   1  UNL1       -0.3046
     31 C         140.1311  142.0286  166.2614 C.3     1  UNL1        0.1081
     32 C         140.4339  142.9286  167.4225 C.3     1  UNL1        0.0938
     33 N         140.3180  142.4085  168.8247 N.3     1  UNL1       -0.2686
     34 C         140.6209  143.3085  169.9859 C.3     1  UNL1        0.0897
     35 C         139.8993  140.9884  169.0657 C.3     1  UNL1        0.0938
     36 C         139.5965  140.0884  167.9046 C.3     1  UNL1        0.1081
@<TRIPOS>BOND
     1    18    19    1
     2    19    20   ar
     3    20    21   ar
     4    21    17    1
     5    17    11    1
     6    11    12    1
     7    12    13    1
     8    13    14    1
     9    14     1    1
    10     1     2    2
    11     2     3    1
    12     2     4    1
    13     4     5    2
    14     5     6    1
    15     6     7    2
    16     7     8    1
    17     8    24    1
    18    24    25   ar
    19    25    26   ar
    20    26    27   ar
    21    27    28   ar
    22    28    30    1
    23    30    31    1
    24    31    32    1
    25    32    33    1
    26    33    34    1
    27    33    35    1
    28    35    36    1
    29    28    29   ar
    30     8     9    2
    31     9    10    1
    32    14    15    1
    33    15    16    1
    34    21    22   ar
    35    22    23   ar
    36    23    19   ar
    37    16    11    1
    38    10     1    1
    39    10     6    1
    40    29    24   ar
    41    36    30    1
@<TRIPOS>MOLECULE
*****
 36 41 0 0 0
SMALL
GASTEIGER

@<TRIPOS>ATOM
      1 C         140.9676  142.0416  158.1953 C.2     1  UNL1        0.1012
      2 C         142.0868  142.8108  157.5583 C.2     1  UNL1        0.1182
      3 CL        141.9165  143.3806  156.1812 Cl      1  UNL1       -0.0771
      4 C         143.3761  143.0103  158.2984 C.2     1  UNL1        0.2481
      5 N         143.5464  142.4405  159.6755 N.2     1  UNL1       -0.0293
      6 C         142.4272  141.6713  160.3125 C.2     1  UNL1        0.4105
      7 N         142.3046  140.9977  161.6472 N.2     1  UNL1        0.0120
      8 C         140.9395  140.3820  161.7319 C.2     1  UNL1        0.3751
      9 N         140.2183  140.6750  160.4497 N.2     1  UNL1       -0.0450
     10 C         141.1378  141.4719  159.5724 C.3     1  UNL1        0.3609
     11 N         137.0995  141.4432  155.9750 N.3     1  UNL1       -0.2646
     12 C         138.1780  140.4035  155.8966 C.3     1  UNL1        0.0941
     13 C         139.4672  140.6029  156.6367 C.3     1  UNL1        0.1080
     14 N         139.6783  141.8422  157.4552 N.pl3   1  UNL1       -0.3034
     15 C         138.5999  142.8819  157.5336 C.3     1  UNL1        0.1080
     16 C         137.3105  142.6823  156.7935 C.3     1  UNL1        0.0941
     17 C         135.8102  141.2437  155.2349 C.3     1  UNL1        0.1222
     18 C         130.8128  140.1938  156.5783 C.3     1  UNL1        0.0754
     19 C         132.3126  140.2191  156.5699 C.ar    1  UNL1        0.1546
     20 C         133.1765  140.9518  155.5866 C.ar    1  UNL1        0.0550
     21 C         134.6096  140.7017  155.9524 C.ar    1  UNL1        0.1165
     22 N         134.6313  139.8145  157.1618 N.ar    1  UNL1       -0.0803
     23 O         133.2117  139.5163  157.5434 O.2     1  UNL1       -0.3580
     24 C         140.3916  139.6089  162.8947 C.ar    1  UNL1        0.0894
     25 C         139.4887  138.4350  162.6564 C.ar    1  UNL1        0.0078
     26 C         138.9408  137.6620  163.8193 C.ar    1  UNL1        0.0015
     27 C         139.2958  138.0628  165.2205 C.ar    1  UNL1        0.0145
     28 C         140.1987  139.2367  165.4588 C.ar    1  UNL1        0.0482
     29 C         140.7465  140.0097  164.2959 C.ar    1  UNL1        0.0222
     30 N         140.5537  139.6376  166.8600 N.pl3   1  UNL1       -0.3046
     31 C         141.9934  139.7455  167.2671 C.3     1  UNL1        0.1081
     32 C         142.3485  140.1464  168.6682 C.3     1  UNL1        0.0938
     33 N         141.2640  140.4394  169.6622 N.3     1  UNL1       -0.2686
     34 C         141.6190  140.8403  171.0634 C.3     1  UNL1        0.0897
     35 C         139.8243  140.3315  169.2550 C.3     1  UNL1        0.0938
     36 C         139.4692  139.9306  167.8539 C.3     1  UNL1        0.1081
@<TRIPOS>BOND
     1    18    19    1
     2    19    20   ar
     3    20    21   ar
     4    21    17    1
     5    17    11    1
     6    11    12    1
     7    12    13    1
     8    13    14    1
     9    14     1    1
    10     1     2    2
    11     2     3    1
    12     2     4    1
    13     4     5    2
    14     5     6    1
    15     6     7    2
    16     7     8    1
    17     8    24    1
    18    24    25   ar
    19    25    26   ar
    20    26    27   ar
    21    27    28   ar
    22    28    30    1
    23    30    31    1
    24    31    32    1
    25    32    33    1
    26    33    34    1
    27    33    35    1
    28    35    36    1
    29    28    29   ar
    30     8     9    2
    31     9    10    1
    32    14    15    1
    33    15    16    1
    34    21    22   ar
    35    22    23   ar
    36    23    19   ar
    37    16    11    1
    38    10     1    1
    39    10     6    1
    40    29    24   ar
    41    36    30    1
