@<TRIPOS>MOLECULE
*****
 36 40 0 0 0
SMALL
GASTEIGER

@<TRIPOS>ATOM
      1 N         138.0944  140.1868  162.8957 N.3     1  UNL1       -0.2689
      2 C         137.8661  141.0201  164.1219 C.3     1  UNL1        0.0737
      3 C         137.7727  142.5128  164.0075 C.3     1  UNL1        0.0356
      4 C         137.9077  143.1721  162.6670 C.3     1  UNL1        0.0843
      5 C         138.1360  142.3388  161.4408 C.3     1  UNL1        0.1407
      6 O         138.2710  142.9982  160.1003 O.3     1  UNL1       -0.3817
      7 C         138.2294  140.8461  161.5552 C.3     1  UNL1        0.1031
      8 H         138.1869  143.9591  160.2027 H       1  UNL1        0.2105
      9 N         137.8144  144.6649  162.5526 N.3     1  UNL1       -0.2915
     10 H         137.2621  144.9872  163.3472 H       1  UNL1        0.1236
     11 C         139.0637  145.4948  162.5284 C.3     1  UNL1        0.1153
     12 C         140.4034  144.8302  162.4137 C.ar    1  UNL1        0.0782
     13 C         141.1561  144.4410  163.6514 C.ar    1  UNL1        0.0562
     14 C         142.4959  143.7764  163.5367 C.ar    1  UNL1        0.1752
     15 C         143.0831  143.5010  162.1841 C.ar    1  UNL1        0.1914
     16 C         142.3305  143.8902  160.9463 C.ar    1  UNL1        0.1384
     17 N         140.9906  144.5549  161.0611 N.ar    1  UNL1       -0.2434
     18 O         144.4229  142.8364  162.0693 O.3     1  UNL1       -0.4668
     19 C         145.1755  142.4471  163.3071 C.3     1  UNL1        0.2527
     20 C         144.5883  142.7225  164.6596 C.3     1  UNL1        0.2526
     21 O         143.2485  143.3871  164.7744 O.3     1  UNL1       -0.4683
     22 C         138.1877  138.6940  163.0101 C.3     1  UNL1        0.0970
     23 C         138.9745  138.0752  164.1273 C.3     1  UNL1        0.1263
     24 C         140.4427  139.9680  167.9367 C.ar    1  UNL1        0.0699
     25 C         141.8976  140.2943  168.0998 C.ar    1  UNL1        0.0104
     26 C         142.8632  139.9897  166.9930 C.ar    1  UNL1        0.0021
     27 C         142.3738  139.3588  165.7233 C.ar    1  UNL1        0.0161
     28 C         143.3394  139.0541  164.6165 C.ar    1  UNL1        0.0063
     29 C         142.8501  138.4232  163.3467 C.ar    1  UNL1        0.0608
     30 C         141.3950  138.0969  163.1836 C.ar    1  UNL1        0.2610
     31 O         140.9057  137.4659  161.9138 O.2     1  UNL1       -0.2670
     32 N         140.4295  138.4015  164.2903 N.ar    1  UNL1       -0.2941
     33 C         140.9189  139.0325  165.5602 C.ar    1  UNL1        0.0631
     34 C         139.9533  139.3371  166.6669 C.ar    1  UNL1        0.0275
     35 N         138.5115  140.5773  170.1502 N.1     1  UNL1       -0.1908
     36 C         139.4771  140.2726  169.0435 C.1     1  UNL1        0.1005
@<TRIPOS>BOND
     1    35    36    3
     2    36    24    1
     3    24    25   ar
     4    25    26   ar
     5    26    27   ar
     6    27    28   ar
     7    28    29   ar
     8    29    30   ar
     9    30    31    2
    10    30    32   ar
    11    32    23    1
    12    23    22    1
    13    22     1    1
    14     1     2    1
    15     2     3    1
    16     3     4    1
    17     4     9    1
    18     9    11    1
    19    11    12    1
    20    12    13   ar
    21    13    14   ar
    22    14    15   ar
    23    15    16   ar
    24    16    17   ar
    25    15    18    1
    26    18    19    1
    27    19    20    1
    28    20    21    1
    29     4     5    1
    30     5     6    1
    31     5     7    1
    32    32    33   ar
    33    33    34   ar
    34    34    24   ar
    35    33    27   ar
    36     7     1    1
    37    17    12   ar
    38    21    14    1
    39     9    10    1
    40     6     8    1
@<TRIPOS>MOLECULE
*****
 36 40 0 0 0
SMALL
GASTEIGER

@<TRIPOS>ATOM
      1 N         140.0135  143.8048  164.2306 N.3     1  UNL1       -0.2689
      2 C         140.6028  142.9536  165.3160 C.3     1  UNL1        0.0737
      3 C         142.0919  142.8513  165.4639 C.3     1  UNL1        0.0356
      4 C         142.9918  143.6003  164.5263 C.3     1  UNL1        0.0843
      5 C         142.4026  144.4516  163.4408 C.3     1  UNL1        0.1407
      6 O         143.3026  145.2006  162.5032 O.3     1  UNL1       -0.3817
      7 C         140.9134  144.5538  163.2930 C.3     1  UNL1        0.1031
      8 H         144.2282  145.0264  162.7352 H       1  UNL1        0.2105
      9 N         144.4811  143.4981  164.6741 N.3     1  UNL1       -0.2915
     10 H         144.6796  143.5155  165.6744 H       1  UNL1        0.1236
     11 C         145.2115  142.3165  164.1082 C.3     1  UNL1        0.1153
     12 C         144.7300  141.6733  162.8416 C.ar    1  UNL1        0.0782
     13 C         144.3171  140.2312  162.8427 C.ar    1  UNL1        0.0562
     14 C         143.8355  139.5880  161.5761 C.ar    1  UNL1        0.1752
     15 C         143.7668  140.3869  160.3083 C.ar    1  UNL1        0.1914
     16 C         144.1796  141.8289  160.3072 C.ar    1  UNL1        0.1384
     17 N         144.6612  142.4721  161.5739 N.ar    1  UNL1       -0.2434
     18 O         143.2852  139.7437  159.0417 O.3     1  UNL1       -0.4668
     19 C         142.8723  138.3016  159.0428 C.3     1  UNL1        0.2527
     20 C         142.9410  137.5028  160.3105 C.3     1  UNL1        0.2526
     21 O         143.4226  138.1460  161.5772 O.3     1  UNL1       -0.4683
     22 C         138.5243  143.9071  164.0828 C.3     1  UNL1        0.0970
     23 C         137.7809  142.8954  163.2619 C.3     1  UNL1        0.1263
     24 C         138.4520  138.8738  165.1662 C.ar    1  UNL1        0.0699
     25 C         139.2055  137.8094  164.4251 C.ar    1  UNL1        0.0104
     26 C         139.7354  138.0856  163.0492 C.ar    1  UNL1        0.0021
     27 C         139.5117  139.4261  162.4144 C.ar    1  UNL1        0.0161
     28 C         140.0415  139.7022  161.0386 C.ar    1  UNL1        0.0063
     29 C         139.8178  141.0427  160.4038 C.ar    1  UNL1        0.0608
     30 C         139.0642  142.1072  161.1449 C.ar    1  UNL1        0.2610
     31 O         138.8405  143.4477  160.5102 O.2     1  UNL1       -0.2670
     32 N         138.5344  141.8310  162.5208 N.ar    1  UNL1       -0.2941
     33 C         138.7581  140.4904  163.1556 C.ar    1  UNL1        0.0631
     34 C         138.2283  140.2143  164.5314 C.ar    1  UNL1        0.0275
     35 N         137.3923  138.3215  167.9179 N.1     1  UNL1       -0.1908
     36 C         137.9222  138.5976  166.5421 C.1     1  UNL1        0.1005
@<TRIPOS>BOND
     1    35    36    3
     2    36    24    1
     3    24    25   ar
     4    25    26   ar
     5    26    27   ar
     6    27    28   ar
     7    28    29   ar
     8    29    30   ar
     9    30    31    2
    10    30    32   ar
    11    32    23    1
    12    23    22    1
    13    22     1    1
    14     1     2    1
    15     2     3    1
    16     3     4    1
    17     4     9    1
    18     9    11    1
    19    11    12    1
    20    12    13   ar
    21    13    14   ar
    22    14    15   ar
    23    15    16   ar
    24    16    17   ar
    25    15    18    1
    26    18    19    1
    27    19    20    1
    28    20    21    1
    29     4     5    1
    30     5     6    1
    31     5     7    1
    32    32    33   ar
    33    33    34   ar
    34    34    24   ar
    35    33    27   ar
    36     7     1    1
    37    17    12   ar
    38    21    14    1
    39     9    10    1
    40     6     8    1
@<TRIPOS>MOLECULE
*****
 36 40 0 0 0
SMALL
GASTEIGER

@<TRIPOS>ATOM
      1 N         142.9892  144.2303  162.4424 N.3     1  UNL1       -0.2689
      2 C         142.3439  145.1045  163.4765 C.3     1  UNL1        0.0737
      3 C         140.8697  145.3747  163.4161 C.3     1  UNL1        0.0356
      4 C         140.0408  144.7705  162.3217 C.3     1  UNL1        0.0843
      5 C         140.6861  143.8963  161.2876 C.3     1  UNL1        0.1407
      6 O         139.8570  143.2921  160.1932 O.3     1  UNL1       -0.3817
      7 C         142.1603  143.6262  161.3480 C.3     1  UNL1        0.1031
      8 H         138.9323  143.5647  160.3000 H       1  UNL1        0.2105
      9 N         138.5665  145.0406  162.2613 N.3     1  UNL1       -0.2915
     10 H         138.2848  144.9207  161.2884 H       1  UNL1        0.1236
     11 C         137.6198  144.2240  163.0901 C.3     1  UNL1        0.1153
     12 C         137.8113  142.7407  163.2045 C.ar    1  UNL1        0.0782
     13 C         138.0392  142.1154  164.5488 C.ar    1  UNL1        0.0562
     14 C         138.2306  140.6321  164.6633 C.ar    1  UNL1        0.1752
     15 C         138.1942  139.7740  163.4334 C.ar    1  UNL1        0.1914
     16 C         137.9662  140.3993  162.0891 C.ar    1  UNL1        0.1384
     17 N         137.7748  141.8827  161.9747 N.ar    1  UNL1       -0.2434
     18 O         138.3856  138.2907  163.5479 O.3     1  UNL1       -0.4668
     19 C         138.6135  137.6654  164.8921 C.3     1  UNL1        0.2527
     20 C         138.6500  138.5234  166.1219 C.3     1  UNL1        0.2526
     21 O         138.4586  140.0068  166.0075 O.3     1  UNL1       -0.4683
     22 C         144.4635  143.9602  162.5028 C.3     1  UNL1        0.0970
     23 C         144.9751  142.7487  163.2244 C.3     1  UNL1        0.1263
     24 C         142.8836  138.7936  162.7420 C.ar    1  UNL1        0.0699
     25 C         142.1015  138.2146  163.8835 C.ar    1  UNL1        0.0104
     26 C         142.0166  138.9540  165.1859 C.ar    1  UNL1        0.0021
     27 C         142.7137  140.2724  165.3467 C.ar    1  UNL1        0.0161
     28 C         142.6287  141.0118  166.6490 C.ar    1  UNL1        0.0063
     29 C         143.3258  142.3302  166.8098 C.ar    1  UNL1        0.0608
     30 C         144.1080  142.9092  165.6683 C.ar    1  UNL1        0.2610
     31 O         144.8051  144.2275  165.8291 O.2     1  UNL1       -0.2670
     32 N         144.1930  142.1698  164.3660 N.ar    1  UNL1       -0.2941
     33 C         143.4958  140.8514  164.2052 C.ar    1  UNL1        0.0631
     34 C         143.5808  140.1120  162.9028 C.ar    1  UNL1        0.0275
     35 N         143.0536  137.3148  160.1374 N.1     1  UNL1       -0.1908
     36 C         142.9686  138.0542  161.4397 C.1     1  UNL1        0.1005
@<TRIPOS>BOND
     1    35    36    3
     2    36    24    1
     3    24    25   ar
     4    25    26   ar
     5    26    27   ar
     6    27    28   ar
     7    28    29   ar
     8    29    30   ar
     9    30    31    2
    10    30    32   ar
    11    32    23    1
    12    23    22    1
    13    22     1    1
    14     1     2    1
    15     2     3    1
    16     3     4    1
    17     4     9    1
    18     9    11    1
    19    11    12    1
    20    12    13   ar
    21    13    14   ar
    22    14    15   ar
    23    15    16   ar
    24    16    17   ar
    25    15    18    1
    26    18    19    1
    27    19    20    1
    28    20    21    1
    29     4     5    1
    30     5     6    1
    31     5     7    1
    32    32    33   ar
    33    33    34   ar
    34    34    24   ar
    35    33    27   ar
    36     7     1    1
    37    17    12   ar
    38    21    14    1
    39     9    10    1
    40     6     8    1
@<TRIPOS>MOLECULE
*****
 36 40 0 0 0
SMALL
GASTEIGER

@<TRIPOS>ATOM
      1 N         143.7206  139.5094  163.1013 N.3     1  UNL1       -0.2689
      2 C         143.1266  138.6564  164.1828 C.3     1  UNL1        0.0737
      3 C         141.8670  137.8847  163.9226 C.3     1  UNL1        0.0356
      4 C         141.2014  137.9658  162.5808 C.3     1  UNL1        0.0843
      5 C         141.7954  138.8188  161.4993 C.3     1  UNL1        0.1407
      6 O         141.1297  138.8999  160.1575 O.3     1  UNL1       -0.3817
      7 C         143.0550  139.5905  161.7596 C.3     1  UNL1        0.1031
      8 H         140.3337  138.3455  160.1574 H       1  UNL1        0.2105
      9 N         139.9417  137.1940  162.3205 N.3     1  UNL1       -0.2915
     10 H         139.9981  136.3417  162.8780 H       1  UNL1        0.1236
     11 C         138.6078  137.8150  162.6125 C.3     1  UNL1        0.1153
     12 C         138.4166  139.2935  162.4474 C.ar    1  UNL1        0.0782
     13 C         138.2199  140.1636  163.6533 C.ar    1  UNL1        0.0562
     14 C         138.0286  141.6422  163.4882 C.ar    1  UNL1        0.1752
     15 C         138.0341  142.2507  162.1171 C.ar    1  UNL1        0.1914
     16 C         138.2308  141.3806  160.9112 C.ar    1  UNL1        0.1384
     17 N         138.4220  139.9020  161.0763 N.ar    1  UNL1       -0.2434
     18 O         137.8428  143.7292  161.9520 O.3     1  UNL1       -0.4668
     19 C         137.6461  144.5993  163.1579 C.3     1  UNL1        0.2527
     20 C         137.6407  143.9909  164.5289 C.3     1  UNL1        0.2526
     21 O         137.8319  142.5123  164.6941 O.3     1  UNL1       -0.4683
     22 C         144.9802  140.2811  163.3616 C.3     1  UNL1        0.0970
     23 C         144.9436  141.5077  164.2243 C.3     1  UNL1        0.1263
     24 C         142.1487  140.9258  167.7028 C.ar    1  UNL1        0.0699
     25 C         140.8913  141.7380  167.7986 C.ar    1  UNL1        0.0104
     26 C         140.5655  142.7442  166.7349 C.ar    1  UNL1        0.0021
     27 C         141.4971  142.9382  165.5755 C.ar    1  UNL1        0.0161
     28 C         141.1714  143.9444  164.5118 C.ar    1  UNL1        0.0063
     29 C         142.1030  144.1384  163.3523 C.ar    1  UNL1        0.0608
     30 C         143.3604  143.3261  163.2564 C.ar    1  UNL1        0.2610
     31 O         144.2920  143.5201  162.0970 O.2     1  UNL1       -0.2670
     32 N         143.6862  142.3199  164.3201 N.ar    1  UNL1       -0.2941
     33 C         142.7545  142.1260  165.4796 C.ar    1  UNL1        0.0631
     34 C         143.0803  141.1198  166.5433 C.ar    1  UNL1        0.0275
     35 N         142.8002  138.9133  169.8301 N.1     1  UNL1       -0.1908
     36 C         142.4744  139.9196  168.7665 C.1     1  UNL1        0.1005
@<TRIPOS>BOND
     1    35    36    3
     2    36    24    1
     3    24    25   ar
     4    25    26   ar
     5    26    27   ar
     6    27    28   ar
     7    28    29   ar
     8    29    30   ar
     9    30    31    2
    10    30    32   ar
    11    32    23    1
    12    23    22    1
    13    22     1    1
    14     1     2    1
    15     2     3    1
    16     3     4    1
    17     4     9    1
    18     9    11    1
    19    11    12    1
    20    12    13   ar
    21    13    14   ar
    22    14    15   ar
    23    15    16   ar
    24    16    17   ar
    25    15    18    1
    26    18    19    1
    27    19    20    1
    28    20    21    1
    29     4     5    1
    30     5     6    1
    31     5     7    1
    32    32    33   ar
    33    33    34   ar
    34    34    24   ar
    35    33    27   ar
    36     7     1    1
    37    17    12   ar
    38    21    14    1
    39     9    10    1
    40     6     8    1
@<TRIPOS>MOLECULE
*****
 36 40 0 0 0
SMALL
GASTEIGER

@<TRIPOS>ATOM
      1 N         137.8856  142.9053  162.7656 N.3     1  UNL1       -0.2689
      2 C         137.6526  141.7113  163.6432 C.3     1  UNL1        0.0737
      3 C         137.6851  140.3313  163.0562 C.3     1  UNL1        0.0356
      4 C         137.9506  140.1454  161.5916 C.3     1  UNL1        0.0843
      5 C         138.1836  141.3394  160.7141 C.3     1  UNL1        0.1407
      6 O         138.4491  141.1534  159.2495 O.3     1  UNL1       -0.3817
      7 C         138.1511  142.7194  161.3011 C.3     1  UNL1        0.1031
      8 H         138.4357  140.2073  159.0361 H       1  UNL1        0.2105
      9 N         137.9831  138.7654  161.0046 N.3     1  UNL1       -0.2915
     10 H         137.4540  138.8034  160.1334 H       1  UNL1        0.1236
     11 C         139.2975  138.1171  160.6848 C.3     1  UNL1        0.1153
     12 C         140.4573  138.2703  161.6236 C.ar    1  UNL1        0.0782
     13 C         141.5089  139.3054  161.3540 C.ar    1  UNL1        0.0562
     14 C         142.6687  139.4585  162.2928 C.ar    1  UNL1        0.1752
     15 C         142.7769  138.5765  163.5013 C.ar    1  UNL1        0.1914
     16 C         141.7253  137.5414  163.7710 C.ar    1  UNL1        0.1384
     17 N         140.5655  137.3883  162.8321 N.ar    1  UNL1       -0.2434
     18 O         143.9367  138.7296  164.4401 O.3     1  UNL1       -0.4668
     19 C         144.9883  139.7647  164.1705 C.3     1  UNL1        0.2527
     20 C         144.8801  140.6467  162.9621 C.3     1  UNL1        0.2526
     21 O         143.7203  140.4936  162.0232 O.3     1  UNL1       -0.4683
     22 C         137.8531  144.2853  163.3527 C.3     1  UNL1        0.0970
     23 C         138.7858  144.6471  164.4703 C.3     1  UNL1        0.1263
     24 C         140.7767  141.5661  167.0768 C.ar    1  UNL1        0.0699
     25 C         142.2476  141.3056  166.9402 C.ar    1  UNL1        0.0104
     26 C         143.0548  142.0720  165.9348 C.ar    1  UNL1        0.0021
     27 C         142.3912  143.0990  165.0659 C.ar    1  UNL1        0.0161
     28 C         143.1984  143.8655  164.0605 C.ar    1  UNL1        0.0063
     29 C         142.5348  144.8924  163.1917 C.ar    1  UNL1        0.0608
     30 C         141.0639  145.1530  163.3283 C.ar    1  UNL1        0.2610
     31 O         140.4003  146.1800  162.4594 O.2     1  UNL1       -0.2670
     32 N         140.2567  144.3865  164.3337 N.ar    1  UNL1       -0.2941
     33 C         140.9204  143.3595  165.2026 C.ar    1  UNL1        0.0631
     34 C         140.1131  142.5931  166.2080 C.ar    1  UNL1        0.0275
     35 N         139.1623  140.0332  169.0878 N.1     1  UNL1       -0.1908
     36 C         139.9695  140.7996  168.0823 C.1     1  UNL1        0.1005
@<TRIPOS>BOND
     1    35    36    3
     2    36    24    1
     3    24    25   ar
     4    25    26   ar
     5    26    27   ar
     6    27    28   ar
     7    28    29   ar
     8    29    30   ar
     9    30    31    2
    10    30    32   ar
    11    32    23    1
    12    23    22    1
    13    22     1    1
    14     1     2    1
    15     2     3    1
    16     3     4    1
    17     4     9    1
    18     9    11    1
    19    11    12    1
    20    12    13   ar
    21    13    14   ar
    22    14    15   ar
    23    15    16   ar
    24    16    17   ar
    25    15    18    1
    26    18    19    1
    27    19    20    1
    28    20    21    1
    29     4     5    1
    30     5     6    1
    31     5     7    1
    32    32    33   ar
    33    33    34   ar
    34    34    24   ar
    35    33    27   ar
    36     7     1    1
    37    17    12   ar
    38    21    14    1
    39     9    10    1
    40     6     8    1
@<TRIPOS>MOLECULE
*****
 36 40 0 0 0
SMALL
GASTEIGER

@<TRIPOS>ATOM
      1 N         141.7631  138.1142  164.1768 N.3     1  UNL1       -0.2689
      2 C         142.3854  138.7367  165.3915 C.3     1  UNL1        0.0737
      3 C         143.6857  139.4749  165.2732 C.3     1  UNL1        0.0356
      4 C         144.3639  139.5905  163.9403 C.3     1  UNL1        0.0843
      5 C         143.7417  138.9680  162.7257 C.3     1  UNL1        0.1407
      6 O         144.4199  139.0837  161.3927 O.3     1  UNL1       -0.3817
      7 C         142.4413  138.2299  162.8439 C.3     1  UNL1        0.1031
      8 H         145.2429  139.5876  161.4913 H       1  UNL1        0.2105
      9 N         145.6644  140.3287  163.8219 N.3     1  UNL1       -0.2915
     10 H         146.1498  139.9422  163.0124 H       1  UNL1        0.1236
     11 C         145.6682  141.8197  163.6579 C.3     1  UNL1        0.1153
     12 C         144.6387  142.4814  162.7905 C.ar    1  UNL1        0.0782
     13 C         143.6598  143.4462  163.3913 C.ar    1  UNL1        0.0562
     14 C         142.6304  144.1079  162.5240 C.ar    1  UNL1        0.1752
     15 C         142.5798  143.8049  161.0557 C.ar    1  UNL1        0.1914
     16 C         143.5588  142.8401  160.4549 C.ar    1  UNL1        0.1384
     17 N         144.5883  142.1784  161.3223 N.ar    1  UNL1       -0.2434
     18 O         141.5504  144.4666  160.1883 O.3     1  UNL1       -0.4668
     19 C         140.5714  145.4313  160.7891 C.3     1  UNL1        0.2527
     20 C         140.6219  145.7343  162.2573 C.3     1  UNL1        0.2526
     21 O         141.6514  145.0726  163.1248 O.3     1  UNL1       -0.4683
     22 C         140.4626  137.3760  164.2952 C.3     1  UNL1        0.0970
     23 C         139.2118  138.1154  164.6675 C.3     1  UNL1        0.1263
     24 C         139.9566  142.2373  166.3121 C.ar    1  UNL1        0.0699
     25 C         139.5375  143.4449  165.5273 C.ar    1  UNL1        0.0104
     26 C         138.8701  143.2786  164.1943 C.ar    1  UNL1        0.0021
     27 C         138.6218  141.9047  163.6461 C.ar    1  UNL1        0.0161
     28 C         137.9544  141.7383  162.3131 C.ar    1  UNL1        0.0063
     29 C         137.7061  140.3644  161.7649 C.ar    1  UNL1        0.0608
     30 C         138.1252  139.1567  162.5497 C.ar    1  UNL1        0.2610
     31 O         137.8769  137.7827  162.0015 O.2     1  UNL1       -0.2670
     32 N         138.7926  139.3230  163.8827 N.ar    1  UNL1       -0.2941
     33 C         139.0409  140.6970  164.4309 C.ar    1  UNL1        0.0631
     34 C         139.7083  140.8634  165.7639 C.ar    1  UNL1        0.0275
     35 N         141.2915  142.5700  168.9781 N.1     1  UNL1       -0.1908
     36 C         140.6241  142.4036  167.6451 C.1     1  UNL1        0.1005
@<TRIPOS>BOND
     1    35    36    3
     2    36    24    1
     3    24    25   ar
     4    25    26   ar
     5    26    27   ar
     6    27    28   ar
     7    28    29   ar
     8    29    30   ar
     9    30    31    2
    10    30    32   ar
    11    32    23    1
    12    23    22    1
    13    22     1    1
    14     1     2    1
    15     2     3    1
    16     3     4    1
    17     4     9    1
    18     9    11    1
    19    11    12    1
    20    12    13   ar
    21    13    14   ar
    22    14    15   ar
    23    15    16   ar
    24    16    17   ar
    25    15    18    1
    26    18    19    1
    27    19    20    1
    28    20    21    1
    29     4     5    1
    30     5     6    1
    31     5     7    1
    32    32    33   ar
    33    33    34   ar
    34    34    24   ar
    35    33    27   ar
    36     7     1    1
    37    17    12   ar
    38    21    14    1
    39     9    10    1
    40     6     8    1
@<TRIPOS>MOLECULE
*****
 36 40 0 0 0
SMALL
GASTEIGER

@<TRIPOS>ATOM
      1 N         142.9949  144.0341  162.3731 N.3     1  UNL1       -0.2689
      2 C         142.9875  143.1722  161.1455 C.3     1  UNL1        0.0737
      3 C         141.7355  143.0390  160.3302 C.3     1  UNL1        0.0356
      4 C         140.4910  143.7678  160.7425 C.3     1  UNL1        0.0843
      5 C         140.4984  144.6297  161.9701 C.3     1  UNL1        0.1407
      6 O         139.2538  145.3586  162.3823 O.3     1  UNL1       -0.3817
      7 C         141.7504  144.7629  162.7854 C.3     1  UNL1        0.1031
      8 H         138.5422  145.1653  161.7521 H       1  UNL1        0.2105
      9 N         139.2389  143.6346  159.9272 N.3     1  UNL1       -0.2915
     10 H         139.5279  143.5792  158.9506 H       1  UNL1        0.1236
     11 C         138.3056  142.4853  160.1684 C.3     1  UNL1        0.1153
     12 C         138.2340  141.8492  161.5249 C.ar    1  UNL1        0.0782
     13 C         138.7078  140.4392  161.7180 C.ar    1  UNL1        0.0562
     14 C         138.6362  139.8031  163.0745 C.ar    1  UNL1        0.1752
     15 C         138.0908  140.5770  164.2380 C.ar    1  UNL1        0.1914
     16 C         137.6170  141.9871  164.0449 C.ar    1  UNL1        0.1384
     17 N         137.6886  142.6232  162.6883 N.ar    1  UNL1       -0.2434
     18 O         138.0192  139.9409  165.5945 O.3     1  UNL1       -0.4668
     19 C         138.4930  138.5309  165.7877 C.3     1  UNL1        0.2527
     20 C         139.0384  137.7569  164.6243 C.3     1  UNL1        0.2526
     21 O         139.1100  138.3930  163.2677 O.3     1  UNL1       -0.4683
     22 C         144.2470  144.1673  163.1884 C.3     1  UNL1        0.0970
     23 C         144.3315  143.5284  164.5429 C.3     1  UNL1        0.1263
     24 C         141.6001  141.8477  167.6997 C.ar    1  UNL1        0.0699
     25 C         141.4402  140.3629  167.8399 C.ar    1  UNL1        0.0104
     26 C         142.1908  139.4383  166.9278 C.ar    1  UNL1        0.0021
     27 C         143.1012  139.9985  165.8756 C.ar    1  UNL1        0.0161
     28 C         143.8517  139.0739  164.9636 C.ar    1  UNL1        0.0063
     29 C         144.7621  139.6341  163.9113 C.ar    1  UNL1        0.0608
     30 C         144.9221  141.1190  163.7711 C.ar    1  UNL1        0.2610
     31 O         145.8325  141.6792  162.7188 O.2     1  UNL1       -0.2670
     32 N         144.1716  142.0436  164.6831 N.ar    1  UNL1       -0.2941
     33 C         143.2611  141.4833  165.7354 C.ar    1  UNL1        0.0631
     34 C         142.5106  142.4079  166.6474 C.ar    1  UNL1        0.0275
     35 N         140.0991  143.6970  169.5237 N.1     1  UNL1       -0.1908
     36 C         140.8496  142.7723  168.6117 C.1     1  UNL1        0.1005
@<TRIPOS>BOND
     1    35    36    3
     2    36    24    1
     3    24    25   ar
     4    25    26   ar
     5    26    27   ar
     6    27    28   ar
     7    28    29   ar
     8    29    30   ar
     9    30    31    2
    10    30    32   ar
    11    32    23    1
    12    23    22    1
    13    22     1    1
    14     1     2    1
    15     2     3    1
    16     3     4    1
    17     4     9    1
    18     9    11    1
    19    11    12    1
    20    12    13   ar
    21    13    14   ar
    22    14    15   ar
    23    15    16   ar
    24    16    17   ar
    25    15    18    1
    26    18    19    1
    27    19    20    1
    28    20    21    1
    29     4     5    1
    30     5     6    1
    31     5     7    1
    32    32    33   ar
    33    33    34   ar
    34    34    24   ar
    35    33    27   ar
    36     7     1    1
    37    17    12   ar
    38    21    14    1
    39     9    10    1
    40     6     8    1
@<TRIPOS>MOLECULE
*****
 36 40 0 0 0
SMALL
GASTEIGER

@<TRIPOS>ATOM
      1 N         137.7890  142.4361  163.5821 N.3     1  UNL1       -0.2689
      2 C         137.8708  142.4952  162.0855 C.3     1  UNL1        0.0737
      3 C         138.1883  141.2560  161.3022 C.3     1  UNL1        0.0356
      4 C         138.4240  139.9578  162.0155 C.3     1  UNL1        0.0843
      5 C         138.3422  139.8987  163.5121 C.3     1  UNL1        0.1407
      6 O         138.5780  138.6003  164.2254 O.3     1  UNL1       -0.3817
      7 C         138.0247  141.1379  164.2954 C.3     1  UNL1        0.1031
      8 H         138.7693  137.9051  163.5767 H       1  UNL1        0.2105
      9 N         138.7415  138.7185  161.2322 N.3     1  UNL1       -0.2915
     10 H         138.1711  138.7500  160.3872 H       1  UNL1        0.1236
     11 C         140.1504  138.4488  160.7939 C.3     1  UNL1        0.1153
     12 C         141.2983  138.8365  161.6782 C.ar    1  UNL1        0.0782
     13 C         142.2413  139.9217  161.2505 C.ar    1  UNL1        0.0562
     14 C         143.3892  140.3094  162.1348 C.ar    1  UNL1        0.1752
     15 C         143.5941  139.6118  163.4469 C.ar    1  UNL1        0.1914
     16 C         142.6510  138.5266  163.8746 C.ar    1  UNL1        0.1384
     17 N         141.5031  138.1389  162.9902 N.ar    1  UNL1       -0.2434
     18 O         144.7419  139.9995  164.3312 O.3     1  UNL1       -0.4668
     19 C         145.6849  141.0848  163.9035 C.3     1  UNL1        0.2527
     20 C         145.4801  141.7824  162.5915 C.3     1  UNL1        0.2526
     21 O         144.3322  141.3947  161.7071 O.3     1  UNL1       -0.4683
     22 C         137.4715  143.6754  164.3653 C.3     1  UNL1        0.0970
     23 C         138.5758  144.5968  164.7915 C.3     1  UNL1        0.1263
     24 C         140.8595  142.1859  167.8283 C.ar    1  UNL1        0.0699
     25 C         142.2892  141.8134  167.5689 C.ar    1  UNL1        0.0104
     26 C         142.9576  142.2446  166.2971 C.ar    1  UNL1        0.0021
     27 C         142.1964  143.0482  165.2849 C.ar    1  UNL1        0.0161
     28 C         142.8648  143.4793  164.0131 C.ar    1  UNL1        0.0063
     29 C         142.1036  144.2830  163.0009 C.ar    1  UNL1        0.0608
     30 C         140.6739  144.6555  163.2603 C.ar    1  UNL1        0.2610
     31 O         139.9127  145.4591  162.2481 O.2     1  UNL1       -0.2670
     32 N         140.0055  144.2243  164.5321 N.ar    1  UNL1       -0.2941
     33 C         140.7667  143.4207  165.5443 C.ar    1  UNL1        0.0631
     34 C         140.0983  142.9895  166.8161 C.ar    1  UNL1        0.0275
     35 N         139.5227  141.3236  170.3718 N.1     1  UNL1       -0.1908
     36 C         140.1911  141.7547  169.1001 C.1     1  UNL1        0.1005
@<TRIPOS>BOND
     1    35    36    3
     2    36    24    1
     3    24    25   ar
     4    25    26   ar
     5    26    27   ar
     6    27    28   ar
     7    28    29   ar
     8    29    30   ar
     9    30    31    2
    10    30    32   ar
    11    32    23    1
    12    23    22    1
    13    22     1    1
    14     1     2    1
    15     2     3    1
    16     3     4    1
    17     4     9    1
    18     9    11    1
    19    11    12    1
    20    12    13   ar
    21    13    14   ar
    22    14    15   ar
    23    15    16   ar
    24    16    17   ar
    25    15    18    1
    26    18    19    1
    27    19    20    1
    28    20    21    1
    29     4     5    1
    30     5     6    1
    31     5     7    1
    32    32    33   ar
    33    33    34   ar
    34    34    24   ar
    35    33    27   ar
    36     7     1    1
    37    17    12   ar
    38    21    14    1
    39     9    10    1
    40     6     8    1
@<TRIPOS>MOLECULE
*****
 36 40 0 0 0
SMALL
GASTEIGER

@<TRIPOS>ATOM
      1 N         143.6545  142.0009  163.9481 N.3     1  UNL1       -0.2689
      2 C         142.9160  142.7312  165.0303 C.3     1  UNL1        0.0737
      3 C         142.1666  143.9902  164.7089 C.3     1  UNL1        0.0356
      4 C         142.1558  144.5189  163.3052 C.3     1  UNL1        0.0843
      5 C         142.8943  143.7885  162.2229 C.3     1  UNL1        0.1407
      6 O         142.8834  144.3173  160.8192 O.3     1  UNL1       -0.3817
      7 C         143.6436  142.5296  162.5444 C.3     1  UNL1        0.1031
      8 H         142.3573  145.1315  160.7845 H       1  UNL1        0.2105
      9 N         141.4064  145.7779  162.9837 N.3     1  UNL1       -0.2915
     10 H         141.9570  146.2783  162.2859 H       1  UNL1        0.1236
     11 C         140.0043  145.7022  162.4560 C.3     1  UNL1        0.1153
     12 C         139.5596  144.4992  161.6782 C.ar    1  UNL1        0.0782
     13 C         138.9302  143.3375  162.3884 C.ar    1  UNL1        0.0562
     14 C         138.4856  142.1345  161.6106 C.ar    1  UNL1        0.1752
     15 C         138.6703  142.0931  160.1226 C.ar    1  UNL1        0.1914
     16 C         139.2997  143.2548  159.4124 C.ar    1  UNL1        0.1384
     17 N         139.7444  144.4578  160.1902 N.ar    1  UNL1       -0.2434
     18 O         138.2256  140.8901  159.3448 O.3     1  UNL1       -0.4668
     19 C         137.5962  139.7284  160.0550 C.3     1  UNL1        0.2527
     20 C         137.4115  139.7698  161.5430 C.3     1  UNL1        0.2526
     21 O         137.8562  140.9728  162.3209 O.3     1  UNL1       -0.4683
     22 C         144.4039  140.7418  164.2696 C.3     1  UNL1        0.0970
     23 C         143.7089  139.6145  164.9739 C.3     1  UNL1        0.1263
     24 C         139.7587  139.7584  167.1245 C.ar    1  UNL1        0.0699
     25 C         138.5466  139.1237  166.5098 C.ar    1  UNL1        0.0104
     26 C         138.6512  138.4410  165.1783 C.ar    1  UNL1        0.0021
     27 C         139.9679  138.3930  164.4614 C.ar    1  UNL1        0.0161
     28 C         140.0725  137.7103  163.1299 C.ar    1  UNL1        0.0063
     29 C         141.3892  137.6623  162.4130 C.ar    1  UNL1        0.0608
     30 C         142.6014  138.2971  163.0277 C.ar    1  UNL1        0.2610
     31 O         143.9181  138.2491  162.3109 O.2     1  UNL1       -0.2670
     32 N         142.4968  138.9798  164.3592 N.ar    1  UNL1       -0.2941
     33 C         141.1800  139.0277  165.0761 C.ar    1  UNL1        0.0631
     34 C         141.0754  139.7104  166.4076 C.ar    1  UNL1        0.0275
     35 N         139.5495  141.1238  169.7875 N.1     1  UNL1       -0.1908
     36 C         139.6541  140.4411  168.4560 C.1     1  UNL1        0.1005
@<TRIPOS>BOND
     1    35    36    3
     2    36    24    1
     3    24    25   ar
     4    25    26   ar
     5    26    27   ar
     6    27    28   ar
     7    28    29   ar
     8    29    30   ar
     9    30    31    2
    10    30    32   ar
    11    32    23    1
    12    23    22    1
    13    22     1    1
    14     1     2    1
    15     2     3    1
    16     3     4    1
    17     4     9    1
    18     9    11    1
    19    11    12    1
    20    12    13   ar
    21    13    14   ar
    22    14    15   ar
    23    15    16   ar
    24    16    17   ar
    25    15    18    1
    26    18    19    1
    27    19    20    1
    28    20    21    1
    29     4     5    1
    30     5     6    1
    31     5     7    1
    32    32    33   ar
    33    33    34   ar
    34    34    24   ar
    35    33    27   ar
    36     7     1    1
    37    17    12   ar
    38    21    14    1
    39     9    10    1
    40     6     8    1
