@<TRIPOS>MOLECULE
*****
 40 44 0 0 0
SMALL
GASTEIGER

@<TRIPOS>ATOM
      1 C         142.5476  138.9559  159.4016 C.3     1  UNL1        0.0758
      2 C         143.7172  139.7534  159.8975 C.3     1  UNL1        0.0370
      3 C         143.5012  141.1191  160.4791 C.3     1  UNL1        0.0741
      4 N         142.1155  141.6871  160.5650 N.3     1  UNL1       -0.2688
      5 C         140.9459  140.8895  160.0692 C.3     1  UNL1        0.0741
      6 C         141.1620  139.5239  159.4875 C.3     1  UNL1        0.0370
      7 O         142.9364  138.6291  156.4449 O.2     1  UNL1       -0.2526
      8 C         142.9580  137.4268  157.3416 C.2     1  UNL1        0.3040
      9 N         142.7636  137.5902  158.8199 N.am    1  UNL1       -0.2903
     10 N         143.1740  136.0612  156.7599 N.am    1  UNL1       -0.2614
     11 C         143.3973  135.5197  155.3791 C.3     1  UNL1        0.1126
     12 C         143.4795  134.1298  155.9373 C.3     1  UNL1        0.0975
     13 C         143.2562  134.6714  157.3182 C.3     1  UNL1        0.1126
     14 H         142.7778  136.8011  159.4084 H       1  UNL1        0.1509
     15 N         143.6955  132.7642  155.3557 N.3     1  UNL1       -0.2710
     16 C         144.6324  131.8033  156.0256 C.3     1  UNL1        0.0724
     17 C         144.8485  130.4376  155.4439 C.3     1  UNL1        0.0258
     18 C         144.1275  130.0328  154.1924 C.3     1  UNL1        0.0979
     19 C         143.1905  130.9938  153.5225 C.3     1  UNL1        0.0258
     20 C         142.9745  132.3594  154.1041 C.3     1  UNL1        0.0724
     21 C         144.3435  128.6672  153.6107 C.3     1  UNL1        0.3976
     22 F         144.5595  127.3015  153.0290 F       1  UNL1       -0.1701
     23 F         145.5314  129.1788  152.8509 F       1  UNL1       -0.1701
     24 F         143.1556  128.1557  154.3705 F       1  UNL1       -0.1701
     25 C         141.8995  143.0528  161.1467 C.3     1  UNL1        0.1007
     26 C         141.2519  143.2013  162.4915 C.ar    1  UNL1        0.0129
     27 C         140.4422  144.3757  162.9553 C.ar    1  UNL1        0.0176
     28 C         139.9902  144.1017  164.3591 C.ar    1  UNL1        0.0799
     29 N         140.5206  142.7580  164.7630 N.ar    1  UNL1       -0.3038
     30 C         141.3004  142.2015  163.6088 C.ar    1  UNL1        0.0772
     31 C         140.3085  142.0884  166.0883 C.ar    1  UNL1        0.0640
     32 C         139.7442  140.6998  166.1453 C.ar    1  UNL1        0.0175
     33 C         139.5321  140.0302  167.4707 C.ar    1  UNL1        0.0053
     34 C         139.8843  140.7492  168.7390 C.ar    1  UNL1        0.0715
     35 C         140.4486  142.1378  168.6822 C.ar    1  UNL1        0.0053
     36 C         140.6608  142.8074  167.3568 C.ar    1  UNL1        0.0175
     37 C         139.6722  140.0796  170.0644 C.3     1  UNL1        0.4186
     38 F         139.4600  139.4100  171.3898 F       1  UNL1       -0.1659
     39 F         140.9864  139.3717  169.9171 F       1  UNL1       -0.1659
     40 F         138.3579  140.7875  170.2118 F       1  UNL1       -0.1659
@<TRIPOS>BOND
     1     7     8    2
     2     8     9   am
     3     9     1    1
     4     1     2    1
     5     2     3    1
     6     3     4    1
     7     4    25    1
     8    25    26    1
     9    26    27   ar
    10    27    28   ar
    11    28    29   ar
    12    29    31    1
    13    31    32   ar
    14    32    33   ar
    15    33    34   ar
    16    34    37    1
    17    37    38    1
    18    37    39    1
    19    37    40    1
    20    34    35   ar
    21    35    36   ar
    22    29    30   ar
    23     4     5    1
    24     5     6    1
    25     8    10   am
    26    10    11    1
    27    11    12    1
    28    12    15    1
    29    15    16    1
    30    16    17    1
    31    17    18    1
    32    18    21    1
    33    21    22    1
    34    21    23    1
    35    21    24    1
    36    18    19    1
    37    19    20    1
    38    12    13    1
    39     6     1    1
    40    13    10    1
    41    30    26   ar
    42    20    15    1
    43    36    31   ar
    44     9    14    1
@<TRIPOS>MOLECULE
*****
 40 44 0 0 0
SMALL
GASTEIGER

@<TRIPOS>ATOM
      1 C         141.0829  138.7276  158.9558 C.3     1  UNL1        0.0758
      2 C         142.4649  138.6778  158.3751 C.3     1  UNL1        0.0370
      3 C         142.6916  138.0509  157.0314 C.3     1  UNL1        0.0741
      4 N         141.5362  137.4738  156.2684 N.3     1  UNL1       -0.2688
      5 C         140.1541  137.5237  156.8492 C.3     1  UNL1        0.0741
      6 C         139.9275  138.1506  158.1929 C.3     1  UNL1        0.0370
      7 O         141.9375  137.2889  161.4458 O.2     1  UNL1       -0.2526
      8 C         141.2834  138.6352  161.5445 C.2     1  UNL1        0.3040
      9 N         140.8561  139.3545  160.2996 N.am    1  UNL1       -0.2903
     10 N         141.0567  139.2621  162.8883 N.am    1  UNL1       -0.2614
     11 C         141.3378  138.8622  164.3063 C.3     1  UNL1        0.1126
     12 C         140.7360  140.1488  164.7886 C.3     1  UNL1        0.0975
     13 C         140.4549  140.5487  163.3705 C.3     1  UNL1        0.1126
     14 H         140.4268  140.2381  160.3644 H       1  UNL1        0.1509
     15 N         140.5093  140.7757  166.1322 N.3     1  UNL1       -0.2710
     16 C         139.9147  139.9666  167.2466 C.3     1  UNL1        0.0724
     17 C         139.6880  140.5935  168.5904 C.3     1  UNL1        0.0258
     18 C         140.0558  142.0295  168.8197 C.3     1  UNL1        0.0979
     19 C         140.6503  142.8386  167.7052 C.3     1  UNL1        0.0258
     20 C         140.8771  142.2117  166.3616 C.3     1  UNL1        0.0724
     21 C         139.8290  142.6565  170.1634 C.3     1  UNL1        0.3976
     22 F         139.6023  143.2834  171.5071 F       1  UNL1       -0.1701
     23 F         140.9126  143.6544  169.8805 F       1  UNL1       -0.1701
     24 F         138.7455  141.6585  170.4461 F       1  UNL1       -0.1701
     25 C         141.7629  136.8469  154.9247 C.3     1  UNL1        0.1007
     26 C         142.1301  135.3959  154.8263 C.ar    1  UNL1        0.0129
     27 C         142.1229  134.5674  153.5760 C.ar    1  UNL1        0.0176
     28 C         142.5573  133.1781  153.9380 C.ar    1  UNL1        0.0799
     29 N         142.8330  133.1479  155.4121 N.ar    1  UNL1       -0.3038
     30 C         142.5690  134.5186  155.9612 C.ar    1  UNL1        0.0772
     31 C         143.2921  131.9563  156.1990 C.ar    1  UNL1        0.0640
     32 C         142.6225  130.6279  156.0077 C.ar    1  UNL1        0.0175
     33 C         143.0816  129.4362  156.7946 C.ar    1  UNL1        0.0053
     34 C         144.2104  129.5731  157.7729 C.ar    1  UNL1        0.0715
     35 C         144.8801  130.9016  157.9643 C.ar    1  UNL1        0.0053
     36 C         144.4210  132.0932  157.1773 C.ar    1  UNL1        0.0175
     37 C         144.6695  128.3815  158.5598 C.3     1  UNL1        0.4186
     38 F         145.1286  127.1898  159.3466 F       1  UNL1       -0.1659
     39 F         143.9004  128.8716  159.7507 F       1  UNL1       -0.1659
     40 F         145.4386  127.8913  157.3688 F       1  UNL1       -0.1659
@<TRIPOS>BOND
     1     7     8    2
     2     8     9   am
     3     9     1    1
     4     1     2    1
     5     2     3    1
     6     3     4    1
     7     4    25    1
     8    25    26    1
     9    26    27   ar
    10    27    28   ar
    11    28    29   ar
    12    29    31    1
    13    31    32   ar
    14    32    33   ar
    15    33    34   ar
    16    34    37    1
    17    37    38    1
    18    37    39    1
    19    37    40    1
    20    34    35   ar
    21    35    36   ar
    22    29    30   ar
    23     4     5    1
    24     5     6    1
    25     8    10   am
    26    10    11    1
    27    11    12    1
    28    12    15    1
    29    15    16    1
    30    16    17    1
    31    17    18    1
    32    18    21    1
    33    21    22    1
    34    21    23    1
    35    21    24    1
    36    18    19    1
    37    19    20    1
    38    12    13    1
    39     6     1    1
    40    13    10    1
    41    30    26   ar
    42    20    15    1
    43    36    31   ar
    44     9    14    1
@<TRIPOS>MOLECULE
*****
 40 44 0 0 0
SMALL
GASTEIGER

@<TRIPOS>ATOM
      1 C         139.9777  144.2698  158.9053 C.3     1  UNL1        0.0758
      2 C         139.4608  143.4356  157.7709 C.3     1  UNL1        0.0370
      3 C         139.6386  143.9010  156.3561 C.3     1  UNL1        0.0741
      4 N         140.3333  145.2005  156.0757 N.3     1  UNL1       -0.2688
      5 C         140.8502  146.0346  157.2101 C.3     1  UNL1        0.0741
      6 C         140.6724  145.5693  158.6249 C.3     1  UNL1        0.0370
      7 O         142.1397  142.6777  160.2437 O.2     1  UNL1       -0.2526
      8 C         140.8808  143.0084  160.9894 C.2     1  UNL1        0.3040
      9 N         139.7999  143.8044  160.3203 N.am    1  UNL1       -0.2903
     10 N         140.7030  142.5431  162.4043 N.am    1  UNL1       -0.2614
     11 C         141.5325  141.7541  163.3735 C.3     1  UNL1        0.1126
     12 C         140.4515  141.8850  164.4053 C.3     1  UNL1        0.0975
     13 C         139.6221  142.6740  163.4360 C.3     1  UNL1        0.1126
     14 H         138.9737  144.0215  160.8097 H       1  UNL1        0.1509
     15 N         140.2737  141.4197  165.8201 N.3     1  UNL1       -0.2710
     16 C         139.4280  140.2160  166.1130 C.3     1  UNL1        0.0724
     17 C         139.2501  139.7507  167.5279 C.3     1  UNL1        0.0258
     18 C         139.9180  140.4890  168.6498 C.3     1  UNL1        0.0979
     19 C         140.7637  141.6928  168.3569 C.3     1  UNL1        0.0258
     20 C         140.9415  142.1581  166.9420 C.3     1  UNL1        0.0724
     21 C         139.7401  140.0237  170.0647 C.3     1  UNL1        0.3976
     22 F         139.5622  139.5584  171.4796 F       1  UNL1       -0.1701
     23 F         138.4249  140.7416  170.1354 F       1  UNL1       -0.1701
     24 F         141.0553  139.3059  169.9939 F       1  UNL1       -0.1701
     25 C         140.5111  145.6658  154.6608 C.3     1  UNL1        0.1007
     26 C         141.8482  145.5410  153.9926 C.ar    1  UNL1        0.0129
     27 C         142.2449  146.1695  152.6897 C.ar    1  UNL1        0.0176
     28 C         143.6653  145.7826  152.4018 C.ar    1  UNL1        0.0799
     29 N         144.1465  144.9150  153.5269 N.ar    1  UNL1       -0.3038
     30 C         143.0235  144.7657  154.5100 C.ar    1  UNL1        0.0772
     31 C         145.5111  144.3040  153.6476 C.ar    1  UNL1        0.0640
     32 C         145.6844  142.9877  154.3456 C.ar    1  UNL1        0.0175
     33 C         147.0490  142.3768  154.4663 C.ar    1  UNL1        0.0053
     34 C         148.2403  143.0821  153.8891 C.ar    1  UNL1        0.0715
     35 C         148.0670  144.3984  153.1910 C.ar    1  UNL1        0.0053
     36 C         146.7024  145.0094  153.0703 C.ar    1  UNL1        0.0175
     37 C         149.6048  142.4711  154.0098 C.3     1  UNL1        0.4186
     38 F         150.9694  141.8601  154.1305 F       1  UNL1       -0.1659
     39 F         150.1700  143.5640  153.1518 F       1  UNL1       -0.1659
     40 F         149.0396  141.3782  154.8678 F       1  UNL1       -0.1659
@<TRIPOS>BOND
     1     7     8    2
     2     8     9   am
     3     9     1    1
     4     1     2    1
     5     2     3    1
     6     3     4    1
     7     4    25    1
     8    25    26    1
     9    26    27   ar
    10    27    28   ar
    11    28    29   ar
    12    29    31    1
    13    31    32   ar
    14    32    33   ar
    15    33    34   ar
    16    34    37    1
    17    37    38    1
    18    37    39    1
    19    37    40    1
    20    34    35   ar
    21    35    36   ar
    22    29    30   ar
    23     4     5    1
    24     5     6    1
    25     8    10   am
    26    10    11    1
    27    11    12    1
    28    12    15    1
    29    15    16    1
    30    16    17    1
    31    17    18    1
    32    18    21    1
    33    21    22    1
    34    21    23    1
    35    21    24    1
    36    18    19    1
    37    19    20    1
    38    12    13    1
    39     6     1    1
    40    13    10    1
    41    30    26   ar
    42    20    15    1
    43    36    31   ar
    44     9    14    1
@<TRIPOS>MOLECULE
*****
 40 44 0 0 0
SMALL
GASTEIGER

@<TRIPOS>ATOM
      1 C         140.0390  143.8389  159.2725 C.3     1  UNL1        0.0758
      2 C         140.4285  145.2036  158.7871 C.3     1  UNL1        0.0370
      3 C         140.2016  145.5828  157.3537 C.3     1  UNL1        0.0741
      4 N         139.5853  144.5971  156.4057 N.3     1  UNL1       -0.2688
      5 C         139.1958  143.2324  156.8911 C.3     1  UNL1        0.0741
      6 C         139.4227  142.8532  158.3245 C.3     1  UNL1        0.0370
      7 O         137.7002  143.2501  161.0567 O.2     1  UNL1       -0.2526
      8 C         139.0965  143.1653  161.5980 C.2     1  UNL1        0.3040
      9 N         140.2659  143.4597  160.7060 N.am    1  UNL1       -0.2903
     10 N         139.3233  142.7861  163.0315 N.am    1  UNL1       -0.2614
     11 C         138.4364  142.4324  164.1882 C.3     1  UNL1        0.1126
     12 C         139.6442  142.2498  165.0587 C.3     1  UNL1        0.0975
     13 C         140.5313  142.6035  163.9019 C.3     1  UNL1        0.1126
     14 H         141.1823  143.4040  161.0614 H       1  UNL1        0.1509
     15 N         139.8711  141.8706  166.4921 N.3     1  UNL1       -0.2710
     16 C         139.6158  140.4637  166.9451 C.3     1  UNL1        0.0724
     17 C         139.8427  140.0844  168.3786 C.3     1  UNL1        0.0258
     18 C         140.3249  141.1122  169.3590 C.3     1  UNL1        0.0979
     19 C         140.5802  142.5192  168.9059 C.3     1  UNL1        0.0258
     20 C         140.3534  142.8984  167.4725 C.3     1  UNL1        0.0724
     21 C         140.5518  140.7330  170.7924 C.3     1  UNL1        0.3976
     22 F         140.7787  140.3538  172.2259 F       1  UNL1       -0.1701
     23 F         140.7941  139.3118  170.3780 F       1  UNL1       -0.1701
     24 F         140.3095  142.1541  171.2067 F       1  UNL1       -0.1701
     25 C         139.3584  144.9763  154.9722 C.3     1  UNL1        0.1007
     26 C         139.7127  146.3538  154.4957 C.ar    1  UNL1        0.0129
     27 C         140.8439  146.7044  153.5751 C.ar    1  UNL1        0.0176
     28 C         140.8284  148.1898  153.3665 C.ar    1  UNL1        0.0799
     29 N         139.6876  148.7572  154.1583 N.ar    1  UNL1       -0.3038
     30 C         138.9981  147.6224  154.8561 C.ar    1  UNL1        0.0772
     31 C         139.3037  150.2050  154.2381 C.ar    1  UNL1        0.0640
     32 C         138.8975  150.8018  155.5528 C.ar    1  UNL1        0.0175
     33 C         138.5137  152.2497  155.6327 C.ar    1  UNL1        0.0053
     34 C         138.5359  153.1006  154.3977 C.ar    1  UNL1        0.0715
     35 C         138.9421  152.5038  153.0829 C.ar    1  UNL1        0.0053
     36 C         139.3260  151.0560  153.0031 C.ar    1  UNL1        0.0175
     37 C         138.1521  154.5485  154.4776 C.3     1  UNL1        0.4186
     38 F         137.7682  155.9963  154.5575 F       1  UNL1       -0.1659
     39 F         138.1497  154.6304  152.9798 F       1  UNL1       -0.1659
     40 F         138.1544  154.4666  155.9754 F       1  UNL1       -0.1659
@<TRIPOS>BOND
     1     7     8    2
     2     8     9   am
     3     9     1    1
     4     1     2    1
     5     2     3    1
     6     3     4    1
     7     4    25    1
     8    25    26    1
     9    26    27   ar
    10    27    28   ar
    11    28    29   ar
    12    29    31    1
    13    31    32   ar
    14    32    33   ar
    15    33    34   ar
    16    34    37    1
    17    37    38    1
    18    37    39    1
    19    37    40    1
    20    34    35   ar
    21    35    36   ar
    22    29    30   ar
    23     4     5    1
    24     5     6    1
    25     8    10   am
    26    10    11    1
    27    11    12    1
    28    12    15    1
    29    15    16    1
    30    16    17    1
    31    17    18    1
    32    18    21    1
    33    21    22    1
    34    21    23    1
    35    21    24    1
    36    18    19    1
    37    19    20    1
    38    12    13    1
    39     6     1    1
    40    13    10    1
    41    30    26   ar
    42    20    15    1
    43    36    31   ar
    44     9    14    1
@<TRIPOS>MOLECULE
*****
 40 44 0 0 0
SMALL
GASTEIGER

@<TRIPOS>ATOM
      1 C         141.7247  138.7141  158.2951 C.3     1  UNL1        0.0758
      2 C         142.9206  138.8138  157.3951 C.3     1  UNL1        0.0370
      3 C         142.8791  138.2091  156.0231 C.3     1  UNL1        0.0741
      4 N         141.6418  137.5046  155.5510 N.3     1  UNL1       -0.2688
      5 C         140.4460  137.4049  156.4510 C.3     1  UNL1        0.0741
      6 C         140.4874  138.0097  157.8230 C.3     1  UNL1        0.0370
      7 O         143.2748  137.3670  160.4820 O.2     1  UNL1       -0.2526
      8 C         142.5411  138.6454  160.7606 C.2     1  UNL1        0.3040
      9 N         141.7661  139.3189  159.6672 N.am    1  UNL1       -0.2903
     10 N         142.5825  139.2502  162.1327 N.am    1  UNL1       -0.2614
     11 C         143.2277  138.8810  163.4355 C.3     1  UNL1        0.1126
     12 C         142.6410  140.1055  164.0731 C.3     1  UNL1        0.0975
     13 C         141.9959  140.4747  162.7702 C.3     1  UNL1        0.1126
     14 H         141.2846  140.1580  159.8501 H       1  UNL1        0.1509
     15 N         142.6824  140.7103  165.4451 N.3     1  UNL1       -0.2710
     16 C         143.4001  142.0078  165.6714 C.3     1  UNL1        0.0724
     17 C         143.4415  142.6127  167.0435 C.3     1  UNL1        0.0258
     18 C         142.7652  141.9200  168.1892 C.3     1  UNL1        0.0979
     19 C         142.0474  140.6224  167.9628 C.3     1  UNL1        0.0258
     20 C         142.0061  140.0176  166.5908 C.3     1  UNL1        0.0724
     21 C         142.8066  142.5248  169.5612 C.3     1  UNL1        0.3976
     22 F         142.8479  143.1296  170.9333 F       1  UNL1       -0.1701
     23 F         141.5659  143.3094  169.2527 F       1  UNL1       -0.1701
     24 F         144.0472  141.7402  169.8696 F       1  UNL1       -0.1701
     25 C         141.6004  136.8998  154.1789 C.3     1  UNL1        0.1007
     26 C         141.8958  135.4410  153.9931 C.ar    1  UNL1        0.0129
     27 C         141.6510  134.6437  152.7464 C.ar    1  UNL1        0.0176
     28 C         142.0918  133.2333  153.0041 C.ar    1  UNL1        0.0799
     29 N         142.6090  133.1589  154.4102 N.ar    1  UNL1       -0.3038
     30 C         142.4879  134.5233  155.0214 C.ar    1  UNL1        0.0772
     31 C         143.1520  131.9349  155.0862 C.ar    1  UNL1        0.0640
     32 C         142.9089  131.7166  156.5501 C.ar    1  UNL1        0.0175
     33 C         143.4519  130.4926  157.2262 C.ar    1  UNL1        0.0053
     34 C         144.2380  129.4871  156.4384 C.ar    1  UNL1        0.0715
     35 C         144.4811  129.7054  154.9744 C.ar    1  UNL1        0.0053
     36 C         143.9382  130.9293  154.2983 C.ar    1  UNL1        0.0175
     37 C         144.7810  128.2631  157.1145 C.3     1  UNL1        0.4186
     38 F         145.3240  127.0391  157.7905 F       1  UNL1       -0.1659
     39 F         143.8761  128.5084  158.2853 F       1  UNL1       -0.1659
     40 F         145.6859  128.0177  155.9435 F       1  UNL1       -0.1659
@<TRIPOS>BOND
     1     7     8    2
     2     8     9   am
     3     9     1    1
     4     1     2    1
     5     2     3    1
     6     3     4    1
     7     4    25    1
     8    25    26    1
     9    26    27   ar
    10    27    28   ar
    11    28    29   ar
    12    29    31    1
    13    31    32   ar
    14    32    33   ar
    15    33    34   ar
    16    34    37    1
    17    37    38    1
    18    37    39    1
    19    37    40    1
    20    34    35   ar
    21    35    36   ar
    22    29    30   ar
    23     4     5    1
    24     5     6    1
    25     8    10   am
    26    10    11    1
    27    11    12    1
    28    12    15    1
    29    15    16    1
    30    16    17    1
    31    17    18    1
    32    18    21    1
    33    21    22    1
    34    21    23    1
    35    21    24    1
    36    18    19    1
    37    19    20    1
    38    12    13    1
    39     6     1    1
    40    13    10    1
    41    30    26   ar
    42    20    15    1
    43    36    31   ar
    44     9    14    1
@<TRIPOS>MOLECULE
*****
 40 44 0 0 0
SMALL
GASTEIGER

@<TRIPOS>ATOM
      1 C         139.1256  141.2360  158.8739 C.3     1  UNL1        0.0758
      2 C         138.4182  142.4977  158.4772 C.3     1  UNL1        0.0370
      3 C         137.8071  142.6176  157.1126 C.3     1  UNL1        0.0741
      4 N         137.9035  141.4756  156.1447 N.3     1  UNL1       -0.2688
      5 C         138.6109  140.2139  156.5415 C.3     1  UNL1        0.0741
      6 C         139.2220  140.0941  157.9061 C.3     1  UNL1        0.0370
      7 O         137.6337  139.8357  161.0679 O.2     1  UNL1       -0.2526
      8 C         138.9908  140.4160  161.3356 C.2     1  UNL1        0.3040
      9 N         139.7367  141.1161  160.2386 N.am    1  UNL1       -0.2903
     10 N         139.6019  140.2961  162.7002 N.am    1  UNL1       -0.2614
     11 C         139.1755  139.6887  164.0036 C.3     1  UNL1        0.1126
     12 C         140.4661  140.1266  164.6301 C.3     1  UNL1        0.0975
     13 C         140.8925  140.7341  163.3266 C.3     1  UNL1        0.1126
     14 H         140.6274  141.4970  160.4143 H       1  UNL1        0.1509
     15 N         141.0773  140.0068  165.9947 N.3     1  UNL1       -0.2710
     16 C         142.3410  139.2213  166.1841 C.3     1  UNL1        0.0724
     17 C         142.9522  139.1014  167.5487 C.3     1  UNL1        0.0258
     18 C         142.2995  139.7671  168.7239 C.3     1  UNL1        0.0979
     19 C         141.0357  140.5526  168.5344 C.3     1  UNL1        0.0258
     20 C         140.4246  140.6724  167.1698 C.3     1  UNL1        0.0724
     21 C         142.9106  139.6472  170.0885 C.3     1  UNL1        0.3976
     22 F         143.5218  139.5274  171.4531 F       1  UNL1       -0.1701
     23 F         143.5545  140.9914  169.9181 F       1  UNL1       -0.1701
     24 F         142.2669  138.3032  170.2588 F       1  UNL1       -0.1701
     25 C         137.2924  141.5955  154.7800 C.3     1  UNL1        0.1007
     26 C         135.8046  141.5030  154.6138 C.ar    1  UNL1        0.0129
     27 C         135.0335  141.8399  153.3720 C.ar    1  UNL1        0.0176
     28 C         133.5789  141.6024  153.6508 C.ar    1  UNL1        0.0799
     29 N         133.4509  141.1188  155.0650 N.ar    1  UNL1       -0.3038
     30 C         134.8265  141.0573  155.6601 C.ar    1  UNL1        0.0772
     31 C         132.1720  140.7596  155.7617 C.ar    1  UNL1        0.0640
     32 C         132.1915  139.8107  156.9231 C.ar    1  UNL1        0.0175
     33 C         130.9126  139.4516  157.6198 C.ar    1  UNL1        0.0053
     34 C         129.6142  140.0414  157.1550 C.ar    1  UNL1        0.0715
     35 C         129.5946  140.9903  155.9935 C.ar    1  UNL1        0.0053
     36 C         130.8735  141.3494  155.2968 C.ar    1  UNL1        0.0175
     37 C         128.3353  139.6822  157.8516 C.3     1  UNL1        0.4186
     38 F         127.0563  139.3232  158.5483 F       1  UNL1       -0.1659
     39 F         129.1089  138.8900  158.8634 F       1  UNL1       -0.1659
     40 F         127.5616  140.4746  156.8398 F       1  UNL1       -0.1659
@<TRIPOS>BOND
     1     7     8    2
     2     8     9   am
     3     9     1    1
     4     1     2    1
     5     2     3    1
     6     3     4    1
     7     4    25    1
     8    25    26    1
     9    26    27   ar
    10    27    28   ar
    11    28    29   ar
    12    29    31    1
    13    31    32   ar
    14    32    33   ar
    15    33    34   ar
    16    34    37    1
    17    37    38    1
    18    37    39    1
    19    37    40    1
    20    34    35   ar
    21    35    36   ar
    22    29    30   ar
    23     4     5    1
    24     5     6    1
    25     8    10   am
    26    10    11    1
    27    11    12    1
    28    12    15    1
    29    15    16    1
    30    16    17    1
    31    17    18    1
    32    18    21    1
    33    21    22    1
    34    21    23    1
    35    21    24    1
    36    18    19    1
    37    19    20    1
    38    12    13    1
    39     6     1    1
    40    13    10    1
    41    30    26   ar
    42    20    15    1
    43    36    31   ar
    44     9    14    1
@<TRIPOS>MOLECULE
*****
 40 44 0 0 0
SMALL
GASTEIGER

@<TRIPOS>ATOM
      1 C         141.1699  140.2751  157.9580 C.3     1  UNL1        0.0758
      2 C         142.1178  141.4287  157.8148 C.3     1  UNL1        0.0370
      3 C         141.8353  142.7232  158.5180 C.3     1  UNL1        0.0741
      4 N         140.6050  142.8640  159.3644 N.3     1  UNL1       -0.2688
      5 C         139.6570  141.7104  159.5076 C.3     1  UNL1        0.0741
      6 C         139.9395  140.4159  158.8044 C.3     1  UNL1        0.0370
      7 O         142.8270  138.1673  159.3039 O.2     1  UNL1       -0.2526
      8 C         142.2808  137.9267  157.9277 C.2     1  UNL1        0.3040
      9 N         141.4523  138.9805  157.2548 N.am    1  UNL1       -0.2903
     10 N         142.5632  136.6321  157.2245 N.am    1  UNL1       -0.2614
     11 C         143.3241  135.3848  157.5638 C.3     1  UNL1        0.1126
     12 C         142.9626  134.8014  156.2300 C.3     1  UNL1        0.0975
     13 C         142.2017  136.0488  155.8907 C.3     1  UNL1        0.1126
     14 H         141.0938  138.8225  156.3516 H       1  UNL1        0.1509
     15 N         143.2450  133.5069  155.5268 N.3     1  UNL1       -0.2710
     16 C         142.5994  133.2153  154.2046 C.3     1  UNL1        0.0724
     17 C         142.8818  131.9208  153.5013 C.3     1  UNL1        0.0258
     18 C         143.8097  130.9179  154.1203 C.3     1  UNL1        0.0979
     19 C         144.4553  131.2096  155.4425 C.3     1  UNL1        0.0258
     20 C         144.1729  132.5040  156.1457 C.3     1  UNL1        0.0724
     21 C         144.0921  129.6234  153.4171 C.3     1  UNL1        0.3976
     22 F         144.3745  128.3289  152.7138 F       1  UNL1       -0.1701
     23 F         142.9570  129.8887  152.4730 F       1  UNL1       -0.1701
     24 F         145.2271  129.3582  154.3611 F       1  UNL1       -0.1701
     25 C         140.3225  144.1586  160.0676 C.3     1  UNL1        0.1007
     26 C         140.2448  144.1972  161.5650 C.ar    1  UNL1        0.0129
     27 C         139.3060  145.0387  162.3777 C.ar    1  UNL1        0.0176
     28 C         139.5732  144.7628  163.8277 C.ar    1  UNL1        0.0799
     29 N         140.6772  143.7507  163.9112 N.ar    1  UNL1       -0.3038
     30 C         141.0923  143.4012  162.5127 C.ar    1  UNL1        0.0772
     31 C         141.2632  143.1871  165.1717 C.ar    1  UNL1        0.0640
     32 C         140.3938  142.9819  166.3766 C.ar    1  UNL1        0.0175
     33 C         140.9799  142.4184  167.6371 C.ar    1  UNL1        0.0053
     34 C         142.4353  142.0600  167.6927 C.ar    1  UNL1        0.0715
     35 C         143.3048  142.2652  166.4878 C.ar    1  UNL1        0.0053
     36 C         142.7188  142.8287  165.2273 C.ar    1  UNL1        0.0175
     37 C         143.0213  141.4964  168.9533 C.3     1  UNL1        0.4186
     38 F         143.6073  140.9328  170.2138 F       1  UNL1       -0.1659
     39 F         144.0513  142.5868  168.9619 F       1  UNL1       -0.1659
     40 F         141.9912  140.4060  168.9446 F       1  UNL1       -0.1659
@<TRIPOS>BOND
     1     7     8    2
     2     8     9   am
     3     9     1    1
     4     1     2    1
     5     2     3    1
     6     3     4    1
     7     4    25    1
     8    25    26    1
     9    26    27   ar
    10    27    28   ar
    11    28    29   ar
    12    29    31    1
    13    31    32   ar
    14    32    33   ar
    15    33    34   ar
    16    34    37    1
    17    37    38    1
    18    37    39    1
    19    37    40    1
    20    34    35   ar
    21    35    36   ar
    22    29    30   ar
    23     4     5    1
    24     5     6    1
    25     8    10   am
    26    10    11    1
    27    11    12    1
    28    12    15    1
    29    15    16    1
    30    16    17    1
    31    17    18    1
    32    18    21    1
    33    21    22    1
    34    21    23    1
    35    21    24    1
    36    18    19    1
    37    19    20    1
    38    12    13    1
    39     6     1    1
    40    13    10    1
    41    30    26   ar
    42    20    15    1
    43    36    31   ar
    44     9    14    1
@<TRIPOS>MOLECULE
*****
 40 44 0 0 0
SMALL
GASTEIGER

@<TRIPOS>ATOM
      1 C         140.8722  142.6054  158.2746 C.3     1  UNL1        0.0758
      2 C         139.7054  142.3151  157.3778 C.3     1  UNL1        0.0370
      3 C         139.7407  142.7407  155.9399 C.3     1  UNL1        0.0741
      4 N         140.9426  143.4566  155.3988 N.3     1  UNL1       -0.2688
      5 C         142.1094  143.7469  156.2956 C.3     1  UNL1        0.0741
      6 C         142.0742  143.3213  157.7335 C.3     1  UNL1        0.0370
      7 O         139.4100  144.2709  160.2965 O.2     1  UNL1       -0.2526
      8 C         140.1059  143.0125  160.7235 C.2     1  UNL1        0.3040
      9 N         140.8370  142.1798  159.7126 N.am    1  UNL1       -0.2903
     10 N         140.0708  142.5870  162.1615 N.am    1  UNL1       -0.2614
     11 C         139.4634  143.1396  163.4166 C.3     1  UNL1        0.1126
     12 C         140.0211  141.9850  164.1950 C.3     1  UNL1        0.0975
     13 C         140.6285  141.4323  162.9398 C.3     1  UNL1        0.1126
     14 H         141.2938  141.3540  159.9928 H       1  UNL1        0.1509
     15 N         139.9859  141.5594  165.6329 N.3     1  UNL1       -0.2710
     16 C         140.5534  142.4548  166.6941 C.3     1  UNL1        0.0724
     17 C         140.5183  142.0292  168.1321 C.3     1  UNL1        0.0258
     18 C         139.9157  140.7082  168.5088 C.3     1  UNL1        0.0979
     19 C         139.3482  139.8128  167.4475 C.3     1  UNL1        0.0258
     20 C         139.3833  140.2385  166.0096 C.3     1  UNL1        0.0724
     21 C         139.8805  140.2826  169.9467 C.3     1  UNL1        0.3976
     22 F         139.8455  139.8570  171.3846 F       1  UNL1       -0.1701
     23 F         141.3642  140.0634  169.9180 F       1  UNL1       -0.1701
     24 F         138.3970  140.5018  169.9753 F       1  UNL1       -0.1701
     25 C         140.9778  143.8822  153.9608 C.3     1  UNL1        0.1007
     26 C         140.9736  145.3405  153.6100 C.ar    1  UNL1        0.0129
     27 C         141.7234  145.9771  152.4775 C.ar    1  UNL1        0.0176
     28 C         141.4321  147.4484  152.4976 C.ar    1  UNL1        0.0799
     29 N         140.5020  147.7211  153.6425 N.ar    1  UNL1       -0.3038
     30 C         140.2187  146.4184  154.3299 C.ar    1  UNL1        0.0772
     31 C         139.9520  149.0613  154.0316 C.ar    1  UNL1        0.0640
     32 C         140.3271  150.2828  153.2460 C.ar    1  UNL1        0.0175
     33 C         139.7771  151.6229  153.6351 C.ar    1  UNL1        0.0053
     34 C         138.8519  151.7416  154.8097 C.ar    1  UNL1        0.0715
     35 C         138.4767  150.5201  155.5953 C.ar    1  UNL1        0.0053
     36 C         139.0267  149.1800  155.2062 C.ar    1  UNL1        0.0175
     37 C         138.3019  153.0818  155.1988 C.3     1  UNL1        0.4186
     38 F         137.7518  154.4220  155.5879 F       1  UNL1       -0.1659
     39 F         137.8719  153.3169  153.7811 F       1  UNL1       -0.1659
     40 F         138.7318  152.8467  156.6165 F       1  UNL1       -0.1659
@<TRIPOS>BOND
     1     7     8    2
     2     8     9   am
     3     9     1    1
     4     1     2    1
     5     2     3    1
     6     3     4    1
     7     4    25    1
     8    25    26    1
     9    26    27   ar
    10    27    28   ar
    11    28    29   ar
    12    29    31    1
    13    31    32   ar
    14    32    33   ar
    15    33    34   ar
    16    34    37    1
    17    37    38    1
    18    37    39    1
    19    37    40    1
    20    34    35   ar
    21    35    36   ar
    22    29    30   ar
    23     4     5    1
    24     5     6    1
    25     8    10   am
    26    10    11    1
    27    11    12    1
    28    12    15    1
    29    15    16    1
    30    16    17    1
    31    17    18    1
    32    18    21    1
    33    21    22    1
    34    21    23    1
    35    21    24    1
    36    18    19    1
    37    19    20    1
    38    12    13    1
    39     6     1    1
    40    13    10    1
    41    30    26   ar
    42    20    15    1
    43    36    31   ar
    44     9    14    1
@<TRIPOS>MOLECULE
*****
 40 44 0 0 0
SMALL
GASTEIGER

@<TRIPOS>ATOM
      1 C         140.8125  143.4595  158.6312 C.3     1  UNL1        0.0758
      2 C         139.4621  143.3628  157.9854 C.3     1  UNL1        0.0370
      3 C         139.2900  143.7473  156.5458 C.3     1  UNL1        0.0741
      4 N         140.4683  144.2284  155.7520 N.3     1  UNL1       -0.2688
      5 C         141.8186  144.3252  156.3977 C.3     1  UNL1        0.0741
      6 C         141.9907  143.9407  157.8373 C.3     1  UNL1        0.0370
      7 O         140.7475  145.5674  160.7648 O.2     1  UNL1       -0.2526
      8 C         140.9522  144.1290  161.1376 C.2     1  UNL1        0.3040
      9 N         140.9847  143.0750  160.0709 N.am    1  UNL1       -0.2903
     10 N         141.1243  143.7445  162.5773 N.am    1  UNL1       -0.2614
     11 C         141.1492  144.4901  163.8786 C.3     1  UNL1        0.1126
     12 C         141.3678  143.2007  164.6133 C.3     1  UNL1        0.0975
     13 C         141.3429  142.4551  163.3119 C.3     1  UNL1        0.1126
     14 H         141.1190  142.1310  160.3155 H       1  UNL1        0.1509
     15 N         141.5400  142.8162  166.0528 N.3     1  UNL1       -0.2710
     16 C         140.3458  142.7431  166.9575 C.3     1  UNL1        0.0724
     17 C         140.5179  142.3586  168.3972 C.3     1  UNL1        0.0258
     18 C         141.8843  142.0472  168.9321 C.3     1  UNL1        0.0979
     19 C         143.0785  142.1203  168.0273 C.3     1  UNL1        0.0258
     20 C         142.9063  142.5048  166.5877 C.3     1  UNL1        0.0724
     21 C         142.0565  141.6627  170.3717 C.3     1  UNL1        0.3976
     22 F         142.2287  141.2782  171.8114 F       1  UNL1       -0.1701
     23 F         143.5270  141.4723  170.1449 F       1  UNL1       -0.1701
     24 F         140.5860  141.8532  170.5984 F       1  UNL1       -0.1701
     25 C         140.2961  144.6129  154.3123 C.3     1  UNL1        0.1007
     26 C         140.4047  146.0516  153.9020 C.ar    1  UNL1        0.0129
     27 C         141.2855  146.5947  152.8161 C.ar    1  UNL1        0.0176
     28 C         141.0767  148.0785  152.7486 C.ar    1  UNL1        0.0799
     29 N         140.0669  148.4526  153.7929 N.ar    1  UNL1       -0.3038
     30 C         139.6516  147.1999  154.5057 C.ar    1  UNL1        0.0772
     31 C         139.5613  149.8363  154.0748 C.ar    1  UNL1        0.0640
     32 C         138.9797  150.1632  155.4182 C.ar    1  UNL1        0.0175
     33 C         138.4740  151.5469  155.7001 C.ar    1  UNL1        0.0053
     34 C         138.5499  152.6039  154.6386 C.ar    1  UNL1        0.0715
     35 C         139.1315  152.2771  153.2951 C.ar    1  UNL1        0.0053
     36 C         139.6372  150.8934  153.0132 C.ar    1  UNL1        0.0175
     37 C         138.0443  153.9876  154.9204 C.3     1  UNL1        0.4186
     38 F         137.5386  155.3714  155.2023 F       1  UNL1       -0.1659
     39 F         138.4608  153.8477  156.3546 F       1  UNL1       -0.1659
     40 F         137.6277  154.1276  153.4862 F       1  UNL1       -0.1659
@<TRIPOS>BOND
     1     7     8    2
     2     8     9   am
     3     9     1    1
     4     1     2    1
     5     2     3    1
     6     3     4    1
     7     4    25    1
     8    25    26    1
     9    26    27   ar
    10    27    28   ar
    11    28    29   ar
    12    29    31    1
    13    31    32   ar
    14    32    33   ar
    15    33    34   ar
    16    34    37    1
    17    37    38    1
    18    37    39    1
    19    37    40    1
    20    34    35   ar
    21    35    36   ar
    22    29    30   ar
    23     4     5    1
    24     5     6    1
    25     8    10   am
    26    10    11    1
    27    11    12    1
    28    12    15    1
    29    15    16    1
    30    16    17    1
    31    17    18    1
    32    18    21    1
    33    21    22    1
    34    21    23    1
    35    21    24    1
    36    18    19    1
    37    19    20    1
    38    12    13    1
    39     6     1    1
    40    13    10    1
    41    30    26   ar
    42    20    15    1
    43    36    31   ar
    44     9    14    1
