@<TRIPOS>MOLECULE
*****
 34 37 0 0 0
SMALL
GASTEIGER

@<TRIPOS>ATOM
      1 N         141.5109  144.8962  164.0726 N.3     1  UNL1       -0.3162
      2 C         141.8331  144.3550  162.7113 C.3     1  UNL1        0.1166
      3 C         142.4791  143.5270  161.6402 C.3     1  UNL1        0.0739
      4 C         142.0809  143.7128  160.2061 C.3     1  UNL1        0.2039
      5 N         141.0366  144.7266  159.8429 N.pl3   1  UNL1       -0.1931
      6 C         140.3906  145.5546  160.9139 C.3     1  UNL1        0.2039
      7 C         140.7889  145.3688  162.3481 C.3     1  UNL1        0.0739
      8 H         142.0812  144.4201  164.7715 H       1  UNL1        0.1192
      9 H         140.5236  144.7400  164.2756 H       1  UNL1        0.1192
     10 C         140.6384  144.9123  158.4087 C.2     1  UNL1        0.3205
     11 N         141.2789  145.9908  157.5861 N.2     1  UNL1        0.0097
     12 C         140.8807  146.1766  156.1520 C.2     1  UNL1        0.4717
     13 N         139.8420  145.2838  155.5403 N.2     1  UNL1        0.0158
     14 C         139.2016  144.2053  156.3628 C.2     1  UNL1        0.3714
     15 N         138.1565  143.1803  156.0354 N.2     1  UNL1       -0.0339
     16 C         137.9088  142.3611  157.2672 C.2     1  UNL1        0.2323
     17 C         138.8008  142.8797  158.3560 C.2     1  UNL1        0.0486
     18 C         139.5998  144.0196  157.7970 C.3     1  UNL1        0.2428
     19 C         142.7654  143.5292  163.5472 C.2     1  UNL1        0.2352
     20 O         144.0353  144.1312  164.0716 O.2     1  UNL1       -0.2737
     21 N         142.4278  142.1012  163.8587 N.am    1  UNL1       -0.3011
     22 H         141.5944  141.7061  163.5145 H       1  UNL1        0.1497
     23 C         143.3602  141.2753  164.6946 C.3     1  UNL1        0.0966
     24 C         143.1317  141.1503  166.1718 C.ar    1  UNL1       -0.0044
     25 C         142.7730  139.8202  166.7653 C.ar    1  UNL1       -0.0018
     26 C         142.5445  139.6951  168.2425 C.ar    1  UNL1        0.0111
     27 C         142.6746  140.9002  169.1261 C.ar    1  UNL1        0.0577
     28 CL        142.4461  140.7751  170.6034 Cl      1  UNL1       -0.0822
     29 C         143.0332  142.2303  168.5327 C.ar    1  UNL1        0.0111
     30 C         143.2618  142.3554  167.0554 C.ar    1  UNL1       -0.0018
     31 C         144.5210  140.5745  164.0532 C.3     1  UNL1        0.0558
     32 C         145.7804  141.3314  163.7515 C.3     1  UNL1        0.1392
     33 O         145.8935  142.1239  162.4830 O.3     1  UNL1       -0.3819
     34 H         145.8803  141.5213  161.7230 H       1  UNL1        0.2104
@<TRIPOS>BOND
     1     1     2    1
     2     2    19    1
     3    19    20    2
     4    19    21   am
     5    21    23    1
     6    23    31    1
     7    31    32    1
     8    32    33    1
     9    23    24    1
    10    24    25   ar
    11    25    26   ar
    12    26    27   ar
    13    27    28    1
    14    27    29   ar
    15    29    30   ar
    16     2     3    1
    17     3     4    1
    18     4     5    1
    19     5    10    1
    20    10    11    2
    21    11    12    1
    22    12    13    2
    23    13    14    1
    24    14    15    2
    25    15    16    1
    26    16    17    2
    27    17    18    1
    28     5     6    1
    29     6     7    1
    30     7     2    1
    31    30    24   ar
    32    18    10    1
    33    18    14    1
    34     1     8    1
    35     1     9    1
    36    21    22    1
    37    33    34    1
@<TRIPOS>MOLECULE
*****
 34 37 0 0 0
SMALL
GASTEIGER

@<TRIPOS>ATOM
      1 N         141.6332  145.8152  163.6783 N.3     1  UNL1       -0.3162
      2 C         141.6381  144.7846  162.5886 C.3     1  UNL1        0.1166
      3 C         142.0002  143.5495  161.8181 C.3     1  UNL1        0.0739
      4 C         141.3320  143.2608  160.5066 C.3     1  UNL1        0.2039
      5 N         140.3016  144.2072  159.9655 N.pl3   1  UNL1       -0.1931
      6 C         139.9394  145.4422  160.7359 C.3     1  UNL1        0.2039
      7 C         140.6077  145.7309  162.0475 C.3     1  UNL1        0.0739
      8 H         142.3023  145.5493  164.4008 H       1  UNL1        0.1192
      9 H         140.6997  145.8756  164.0850 H       1  UNL1        0.1192
     10 C         139.6334  143.9185  158.6540 C.2     1  UNL1        0.3205
     11 N         138.6009  142.8343  158.5609 N.2     1  UNL1        0.0097
     12 C         137.9327  142.5456  157.2494 C.2     1  UNL1        0.4717
     13 N         138.2969  143.3410  156.0309 N.2     1  UNL1        0.0158
     14 C         139.3294  144.4251  156.1240 C.2     1  UNL1        0.3714
     15 N         139.8898  145.3679  155.1007 N.2     1  UNL1       -0.0339
     16 C         140.9044  146.2393  155.7798 C.2     1  UNL1        0.2323
     17 C         140.9710  145.8351  157.2228 C.2     1  UNL1        0.0486
     18 C         139.9976  144.7138  157.4355 C.3     1  UNL1        0.2428
     19 C         142.6668  144.1962  163.5081 C.2     1  UNL1        0.2352
     20 O         143.6493  145.0903  164.2047 O.2     1  UNL1       -0.2737
     21 N         142.7129  142.7135  163.7310 N.am    1  UNL1       -0.3011
     22 H         142.0680  142.1267  163.2738 H       1  UNL1        0.1497
     23 C         143.7416  142.1250  164.6506 C.3     1  UNL1        0.0966
     24 C         143.3138  141.4447  165.9171 C.ar    1  UNL1       -0.0044
     25 C         143.1003  142.2489  167.1652 C.ar    1  UNL1       -0.0018
     26 C         142.6726  141.5686  168.4318 C.ar    1  UNL1        0.0111
     27 C         142.4583  140.0841  168.4502 C.ar    1  UNL1        0.0577
     28 CL        142.0306  139.4038  169.7169 Cl      1  UNL1       -0.0822
     29 C         142.6718  139.2799  167.2022 C.ar    1  UNL1        0.0111
     30 C         143.0996  139.9602  165.9356 C.ar    1  UNL1       -0.0018
     31 C         145.1980  142.2168  164.3035 C.3     1  UNL1        0.0558
     32 C         145.6700  141.8170  162.9369 C.3     1  UNL1        0.1392
     33 O         145.3523  142.6797  161.7516 O.3     1  UNL1       -0.3819
     34 H         144.3944  142.6795  161.5990 H       1  UNL1        0.2104
@<TRIPOS>BOND
     1     1     2    1
     2     2    19    1
     3    19    20    2
     4    19    21   am
     5    21    23    1
     6    23    31    1
     7    31    32    1
     8    32    33    1
     9    23    24    1
    10    24    25   ar
    11    25    26   ar
    12    26    27   ar
    13    27    28    1
    14    27    29   ar
    15    29    30   ar
    16     2     3    1
    17     3     4    1
    18     4     5    1
    19     5    10    1
    20    10    11    2
    21    11    12    1
    22    12    13    2
    23    13    14    1
    24    14    15    2
    25    15    16    1
    26    16    17    2
    27    17    18    1
    28     5     6    1
    29     6     7    1
    30     7     2    1
    31    30    24   ar
    32    18    10    1
    33    18    14    1
    34     1     8    1
    35     1     9    1
    36    21    22    1
    37    33    34    1
@<TRIPOS>MOLECULE
*****
 34 37 0 0 0
SMALL
GASTEIGER

@<TRIPOS>ATOM
      1 N         139.4187  138.3101  162.4691 N.3     1  UNL1       -0.3162
      2 C         140.6898  138.2238  161.6774 C.3     1  UNL1        0.1166
      3 C         142.1522  138.0966  161.3685 C.3     1  UNL1        0.0739
      4 C         142.6225  138.1170  159.9444 C.3     1  UNL1        0.2039
      5 N         141.6304  138.2646  158.8289 N.pl3   1  UNL1       -0.1931
      6 C         140.1680  138.3918  159.1378 C.3     1  UNL1        0.2039
      7 C         139.6978  138.3714  160.5621 C.3     1  UNL1        0.0739
      8 H         139.6327  138.2434  163.4641 H       1  UNL1        0.1192
      9 H         138.7994  137.5448  162.2024 H       1  UNL1        0.1192
     10 C         142.1007  138.2850  157.4047 C.2     1  UNL1        0.3205
     11 N         141.9462  139.5295  156.5816 N.2     1  UNL1        0.0097
     12 C         142.4164  139.5499  155.1575 C.2     1  UNL1        0.4717
     13 N         143.0413  138.3259  154.5563 N.2     1  UNL1        0.0158
     14 C         143.1958  137.0815  155.3794 C.2     1  UNL1        0.3714
     15 N         143.7691  135.7324  155.0611 N.2     1  UNL1       -0.0339
     16 C         143.6531  134.8782  156.2886 C.2     1  UNL1        0.2323
     17 C         143.0081  135.6993  157.3655 C.2     1  UNL1        0.0486
     18 C         142.7255  137.0610  156.8036 C.3     1  UNL1        0.2428
     19 C         141.2405  138.1061  163.0677 C.2     1  UNL1        0.2352
     20 O         141.1826  136.7921  163.7887 O.2     1  UNL1       -0.2737
     21 N         141.8490  139.3027  163.7370 N.am    1  UNL1       -0.3011
     22 H         141.8870  140.1652  163.2638 H       1  UNL1        0.1497
     23 C         142.3997  139.1851  165.1273 C.3     1  UNL1        0.0966
     24 C         141.5230  139.4782  166.3085 C.ar    1  UNL1       -0.0044
     25 C         140.0322  139.5132  166.1457 C.ar    1  UNL1       -0.0018
     26 C         139.1554  139.8063  167.3270 C.ar    1  UNL1        0.0111
     27 C         139.7694  140.0643  168.6710 C.ar    1  UNL1        0.0577
     28 CL        138.8926  140.3574  169.8523 Cl      1  UNL1       -0.0822
     29 C         141.2601  140.0293  168.8339 C.ar    1  UNL1        0.0111
     30 C         142.1370  139.7362  167.6526 C.ar    1  UNL1       -0.0018
     31 C         143.8272  138.7745  165.3363 C.3     1  UNL1        0.0558
     32 C         144.9176  139.4144  164.5291 C.3     1  UNL1        0.1392
     33 O         144.8651  139.3716  163.0306 O.3     1  UNL1       -0.3819
     34 H         144.9576  138.4541  162.7299 H       1  UNL1        0.2104
@<TRIPOS>BOND
     1     1     2    1
     2     2    19    1
     3    19    20    2
     4    19    21   am
     5    21    23    1
     6    23    31    1
     7    31    32    1
     8    32    33    1
     9    23    24    1
    10    24    25   ar
    11    25    26   ar
    12    26    27   ar
    13    27    28    1
    14    27    29   ar
    15    29    30   ar
    16     2     3    1
    17     3     4    1
    18     4     5    1
    19     5    10    1
    20    10    11    2
    21    11    12    1
    22    12    13    2
    23    13    14    1
    24    14    15    2
    25    15    16    1
    26    16    17    2
    27    17    18    1
    28     5     6    1
    29     6     7    1
    30     7     2    1
    31    30    24   ar
    32    18    10    1
    33    18    14    1
    34     1     8    1
    35     1     9    1
    36    21    22    1
    37    33    34    1
@<TRIPOS>MOLECULE
*****
 34 37 0 0 0
SMALL
GASTEIGER

@<TRIPOS>ATOM
      1 N         143.1118  143.1519  163.3505 N.3     1  UNL1       -0.3162
      2 C         142.2291  142.4368  164.3299 C.3     1  UNL1        0.1166
      3 C         141.0540  141.6839  164.8798 C.3     1  UNL1        0.0739
      4 C         141.0271  141.2882  166.3264 C.3     1  UNL1        0.2039
      5 N         142.1753  141.6454  167.2231 N.pl3   1  UNL1       -0.1931
      6 C         143.3504  142.3983  166.6733 C.3     1  UNL1        0.2039
      7 C         143.3772  142.7940  165.2266 C.3     1  UNL1        0.0739
      8 H         142.6642  143.1623  162.4340 H       1  UNL1        0.1192
      9 H         144.0082  142.6696  163.2856 H       1  UNL1        0.1192
     10 C         142.1484  141.2497  168.6698 C.2     1  UNL1        0.3205
     11 N         143.0200  140.1306  169.1575 N.2     1  UNL1        0.0097
     12 C         142.9931  139.7349  170.6041 C.2     1  UNL1        0.4717
     13 N         142.0946  140.4583  171.5630 N.2     1  UNL1        0.0158
     14 C         141.2231  141.5774  171.0752 C.2     1  UNL1        0.3714
     15 N         140.2428  142.4668  171.7810 N.2     1  UNL1       -0.0339
     16 C         139.6639  143.4122  170.7705 C.2     1  UNL1        0.2323
     17 C         140.2863  143.1071  169.4403 C.2     1  UNL1        0.0486
     18 C         141.2500  141.9731  169.6286 C.3     1  UNL1        0.2428
     19 C         141.3874  142.3279  163.0930 C.2     1  UNL1        0.2352
     20 O         141.5276  141.1362  162.1930 O.2     1  UNL1       -0.2737
     21 N         140.4056  143.4108  162.7564 N.am    1  UNL1       -0.3011
     22 H         140.3136  144.1930  163.3471 H       1  UNL1        0.1497
     23 C         139.5639  143.3020  161.5195 C.3     1  UNL1        0.0966
     24 C         140.1266  143.7119  160.1909 C.ar    1  UNL1       -0.0044
     25 C         140.2903  142.6955  159.0999 C.ar    1  UNL1       -0.0018
     26 C         140.8530  143.1054  157.7713 C.ar    1  UNL1        0.0111
     27 C         141.2522  144.5317  157.5337 C.ar    1  UNL1        0.0577
     28 CL        141.8150  144.9416  156.2050 Cl      1  UNL1       -0.0822
     29 C         141.0886  145.5481  158.6246 C.ar    1  UNL1        0.0111
     30 C         140.5258  145.1382  159.9533 C.ar    1  UNL1       -0.0018
     31 C         138.1594  142.7833  161.6114 C.3     1  UNL1        0.0558
     32 C         137.5732  142.4386  162.9484 C.3     1  UNL1        0.1392
     33 O         136.6176  141.2892  163.0745 O.3     1  UNL1       -0.3819
     34 H         135.8034  141.4908  162.5873 H       1  UNL1        0.2104
@<TRIPOS>BOND
     1     1     2    1
     2     2    19    1
     3    19    20    2
     4    19    21   am
     5    21    23    1
     6    23    31    1
     7    31    32    1
     8    32    33    1
     9    23    24    1
    10    24    25   ar
    11    25    26   ar
    12    26    27   ar
    13    27    28    1
    14    27    29   ar
    15    29    30   ar
    16     2     3    1
    17     3     4    1
    18     4     5    1
    19     5    10    1
    20    10    11    2
    21    11    12    1
    22    12    13    2
    23    13    14    1
    24    14    15    2
    25    15    16    1
    26    16    17    2
    27    17    18    1
    28     5     6    1
    29     6     7    1
    30     7     2    1
    31    30    24   ar
    32    18    10    1
    33    18    14    1
    34     1     8    1
    35     1     9    1
    36    21    22    1
    37    33    34    1
@<TRIPOS>MOLECULE
*****
 34 37 0 0 0
SMALL
GASTEIGER

@<TRIPOS>ATOM
      1 N         143.8525  139.5673  161.9763 N.3     1  UNL1       -0.3162
      2 C         144.1096  140.7785  161.1298 C.3     1  UNL1        0.1166
      3 C         144.4678  142.1862  160.7551 C.3     1  UNL1        0.0739
      4 C         144.4457  142.6079  159.3158 C.3     1  UNL1        0.2039
      5 N         144.0653  141.6220  158.2511 N.pl3   1  UNL1       -0.1931
      6 C         143.7072  140.2144  158.6258 C.3     1  UNL1        0.2039
      7 C         143.7293  139.7927  160.0651 C.3     1  UNL1        0.0739
      8 H         144.0128  139.7975  162.9569 H       1  UNL1        0.1192
      9 H         144.4834  138.8164  161.6958 H       1  UNL1        0.1192
     10 C         144.0432  142.0438  156.8118 C.2     1  UNL1        0.3205
     11 N         142.7337  142.2160  156.1008 N.2     1  UNL1        0.0097
     12 C         142.7115  142.6378  154.6615 C.2     1  UNL1        0.4717
     13 N         143.9989  142.8874  153.9332 N.2     1  UNL1        0.0158
     14 C         145.3084  142.7152  154.6442 C.2     1  UNL1        0.3714
     15 N         146.7275  142.8881  154.1899 N.2     1  UNL1       -0.0339
     16 C         147.6266  142.5732  155.3485 C.2     1  UNL1        0.2323
     17 C         146.7633  142.2056  156.5188 C.2     1  UNL1        0.0486
     18 C         145.3305  142.2934  156.0835 C.3     1  UNL1        0.2428
     19 C         144.4007  141.3438  162.4884 C.2     1  UNL1        0.2352
     20 O         145.8093  141.3719  163.0030 O.2     1  UNL1       -0.2737
     21 N         143.2829  141.8808  163.3324 N.am    1  UNL1       -0.3011
     22 H         142.3584  141.8623  162.9946 H       1  UNL1        0.1497
     23 C         143.5739  142.4460  164.6910 C.3     1  UNL1        0.0966
     24 C         143.2582  141.6456  165.9197 C.ar    1  UNL1       -0.0044
     25 C         143.0697  140.1608  165.8196 C.ar    1  UNL1       -0.0018
     26 C         142.7540  139.3604  167.0482 C.ar    1  UNL1        0.0111
     27 C         142.6268  140.0448  168.3770 C.ar    1  UNL1        0.0577
     28 CL        142.3111  139.2442  169.6056 Cl      1  UNL1       -0.0822
     29 C         142.8153  141.5294  168.4771 C.ar    1  UNL1        0.0111
     30 C         143.1310  142.3300  167.2484 C.ar    1  UNL1       -0.0018
     31 C         144.1806  143.8117  164.8209 C.3     1  UNL1        0.0558
     32 C         143.6228  144.9584  164.0309 C.3     1  UNL1        0.1392
     33 O         143.9382  145.0865  162.5700 O.3     1  UNL1       -0.3819
     34 H         144.8863  145.2580  162.4578 H       1  UNL1        0.2104
@<TRIPOS>BOND
     1     1     2    1
     2     2    19    1
     3    19    20    2
     4    19    21   am
     5    21    23    1
     6    23    31    1
     7    31    32    1
     8    32    33    1
     9    23    24    1
    10    24    25   ar
    11    25    26   ar
    12    26    27   ar
    13    27    28    1
    14    27    29   ar
    15    29    30   ar
    16     2     3    1
    17     3     4    1
    18     4     5    1
    19     5    10    1
    20    10    11    2
    21    11    12    1
    22    12    13    2
    23    13    14    1
    24    14    15    2
    25    15    16    1
    26    16    17    2
    27    17    18    1
    28     5     6    1
    29     6     7    1
    30     7     2    1
    31    30    24   ar
    32    18    10    1
    33    18    14    1
    34     1     8    1
    35     1     9    1
    36    21    22    1
    37    33    34    1
@<TRIPOS>MOLECULE
*****
 34 37 0 0 0
SMALL
GASTEIGER

@<TRIPOS>ATOM
      1 N         145.4683  140.9837  163.9026 N.3     1  UNL1       -0.3162
      2 C         144.3011  141.0777  162.9653 C.3     1  UNL1        0.1166
      3 C         142.9514  140.8182  162.3643 C.3     1  UNL1        0.0739
      4 C         142.5323  141.5437  161.1203 C.3     1  UNL1        0.2039
      5 N         143.4628  142.5290  160.4771 N.pl3   1  UNL1       -0.1931
      6 C         144.8124  142.7885  161.0780 C.3     1  UNL1        0.2039
      7 C         145.2316  142.0628  162.3221 C.3     1  UNL1        0.0739
      8 H         145.2592  140.3105  164.6397 H       1  UNL1        0.1192
      9 H         145.6455  141.8984  164.3178 H       1  UNL1        0.1192
     10 C         143.0436  143.2546  159.2330 C.2     1  UNL1        0.3205
     11 N         142.2687  144.5347  159.3364 N.2     1  UNL1        0.0097
     12 C         141.8496  145.2603  158.0924 C.2     1  UNL1        0.4717
     13 N         142.2052  144.7058  156.7448 N.2     1  UNL1        0.0158
     14 C         142.9801  143.4256  156.6413 C.2     1  UNL1        0.3714
     15 N         143.4713  142.6424  155.4601 N.2     1  UNL1       -0.0339
     16 C         144.1941  141.4328  155.9741 C.2     1  UNL1        0.2323
     17 C         144.1496  141.4683  157.4731 C.2     1  UNL1        0.0486
     18 C         143.3993  142.7000  157.8854 C.3     1  UNL1        0.2428
     19 C         143.7760  140.0599  163.9340 C.2     1  UNL1        0.2352
     20 O         144.7198  139.1079  164.6069 O.2     1  UNL1       -0.2737
     21 N         142.3068  139.9942  164.2296 N.am    1  UNL1       -0.3011
     22 H         141.6874  140.6190  163.7879 H       1  UNL1        0.1497
     23 C         141.7816  138.9764  165.1983 C.3     1  UNL1        0.0966
     24 C         141.5332  139.3592  166.6272 C.ar    1  UNL1       -0.0044
     25 C         142.6536  139.3072  167.6232 C.ar    1  UNL1       -0.0018
     26 C         142.4052  139.6900  169.0521 C.ar    1  UNL1        0.0111
     27 C         141.0363  140.1248  169.4849 C.ar    1  UNL1        0.0577
     28 CL        140.7880  140.5076  170.9139 Cl      1  UNL1       -0.0822
     29 C         139.9160  140.1768  168.4890 C.ar    1  UNL1        0.0111
     30 C         140.1644  139.7940  167.0600 C.ar    1  UNL1       -0.0018
     31 C         141.5048  137.5758  164.7380 C.3     1  UNL1        0.0558
     32 C         141.1382  137.3153  163.3070 C.3     1  UNL1        0.1392
     33 O         142.1925  137.3675  162.2413 O.3     1  UNL1       -0.3819
     34 H         142.5263  138.2747  162.1608 H       1  UNL1        0.2104
@<TRIPOS>BOND
     1     1     2    1
     2     2    19    1
     3    19    20    2
     4    19    21   am
     5    21    23    1
     6    23    31    1
     7    31    32    1
     8    32    33    1
     9    23    24    1
    10    24    25   ar
    11    25    26   ar
    12    26    27   ar
    13    27    28    1
    14    27    29   ar
    15    29    30   ar
    16     2     3    1
    17     3     4    1
    18     4     5    1
    19     5    10    1
    20    10    11    2
    21    11    12    1
    22    12    13    2
    23    13    14    1
    24    14    15    2
    25    15    16    1
    26    16    17    2
    27    17    18    1
    28     5     6    1
    29     6     7    1
    30     7     2    1
    31    30    24   ar
    32    18    10    1
    33    18    14    1
    34     1     8    1
    35     1     9    1
    36    21    22    1
    37    33    34    1
@<TRIPOS>MOLECULE
*****
 34 37 0 0 0
SMALL
GASTEIGER

@<TRIPOS>ATOM
      1 N         143.5326  138.7121  163.4899 N.3     1  UNL1       -0.3162
      2 C         142.6094  139.6874  164.1578 C.3     1  UNL1        0.1166
      3 C         141.6811  140.8515  164.3404 C.3     1  UNL1        0.0739
      4 C         141.0879  141.1335  165.6889 C.3     1  UNL1        0.2039
      5 N         141.4229  140.2514  166.8550 N.pl3   1  UNL1       -0.1931
      6 C         142.3512  139.0873  166.6725 C.3     1  UNL1        0.2039
      7 C         142.9444  138.8054  165.3239 C.3     1  UNL1        0.0739
      8 H         143.6281  138.9550  162.5038 H       1  UNL1        0.1192
      9 H         143.1498  137.7703  163.5725 H       1  UNL1        0.1192
     10 C         140.8297  140.5334  168.2035 C.2     1  UNL1        0.3205
     11 N         139.5225  139.9093  168.5932 N.2     1  UNL1        0.0097
     12 C         138.9293  140.1912  169.9417 C.2     1  UNL1        0.4717
     13 N         139.6432  141.0974  170.9006 N.2     1  UNL1        0.0158
     14 C         140.9503  141.7214  170.5109 C.2     1  UNL1        0.3714
     15 N         141.8767  142.6488  171.2401 N.2     1  UNL1       -0.0339
     16 C         143.0425  142.9399  170.3423 C.2     1  UNL1        0.2323
     17 C         142.8366  142.1925  169.0581 C.2     1  UNL1        0.0486
     18 C         141.5436  141.4394  169.1623 C.3     1  UNL1        0.2428
     19 C         142.5950  140.2308  162.7598 C.2     1  UNL1        0.2352
     20 O         141.3948  140.9774  162.2576 O.2     1  UNL1       -0.2737
     21 N         143.7808  140.0276  161.8640 N.am    1  UNL1       -0.3011
     22 H         144.5685  139.5375  162.1936 H       1  UNL1        0.1497
     23 C         143.7665  140.5710  160.4659 C.3     1  UNL1        0.0966
     24 C         143.4620  139.6630  159.3115 C.ar    1  UNL1       -0.0044
     25 C         143.6528  140.1483  157.9050 C.ar    1  UNL1       -0.0018
     26 C         143.3483  139.2403  156.7505 C.ar    1  UNL1        0.0111
     27 C         142.8531  137.8470  157.0025 C.ar    1  UNL1        0.0577
     28 CL        142.5487  136.9390  155.8480 Cl      1  UNL1       -0.0822
     29 C         142.6623  137.3617  158.4089 C.ar    1  UNL1        0.0111
     30 C         142.9668  138.2697  159.5635 C.ar    1  UNL1       -0.0018
     31 C         144.0566  142.0224  160.2224 C.3     1  UNL1        0.0558
     32 C         144.9964  142.7616  161.1282 C.3     1  UNL1        0.1392
     33 O         145.7443  142.0221  162.1977 O.3     1  UNL1       -0.3819
     34 H         145.1171  141.6837  162.8558 H       1  UNL1        0.2104
@<TRIPOS>BOND
     1     1     2    1
     2     2    19    1
     3    19    20    2
     4    19    21   am
     5    21    23    1
     6    23    31    1
     7    31    32    1
     8    32    33    1
     9    23    24    1
    10    24    25   ar
    11    25    26   ar
    12    26    27   ar
    13    27    28    1
    14    27    29   ar
    15    29    30   ar
    16     2     3    1
    17     3     4    1
    18     4     5    1
    19     5    10    1
    20    10    11    2
    21    11    12    1
    22    12    13    2
    23    13    14    1
    24    14    15    2
    25    15    16    1
    26    16    17    2
    27    17    18    1
    28     5     6    1
    29     6     7    1
    30     7     2    1
    31    30    24   ar
    32    18    10    1
    33    18    14    1
    34     1     8    1
    35     1     9    1
    36    21    22    1
    37    33    34    1
@<TRIPOS>MOLECULE
*****
 34 37 0 0 0
SMALL
GASTEIGER

@<TRIPOS>ATOM
      1 N         142.1453  139.3467  163.2380 N.3     1  UNL1       -0.3162
      2 C         140.9074  139.0242  162.4546 C.3     1  UNL1        0.1166
      3 C         139.4987  138.6058  162.1539 C.3     1  UNL1        0.0739
      4 C         139.0118  138.5757  160.7355 C.3     1  UNL1        0.2039
      5 N         139.9337  138.9640  159.6176 N.pl3   1  UNL1       -0.1931
      6 C         141.3424  139.3825  159.9183 C.3     1  UNL1        0.2039
      7 C         141.8292  139.4125  161.3369 C.3     1  UNL1        0.0739
      8 H         141.9657  139.2034  164.2318 H       1  UNL1        0.1192
      9 H         142.4061  140.3194  163.0764 H       1  UNL1        0.1192
     10 C         139.4468  138.9340  158.1992 C.2     1  UNL1        0.3205
     11 N         139.6746  137.7161  157.3537 N.2     1  UNL1        0.0097
     12 C         139.1877  137.6860  155.9353 C.2     1  UNL1        0.4717
     13 N         138.4730  138.8738  155.3623 N.2     1  UNL1        0.0158
     14 C         138.2452  140.0916  156.2077 C.2     1  UNL1        0.3714
     15 N         137.5772  141.4033  155.9190 N.2     1  UNL1       -0.0339
     16 C         137.6512  142.2440  157.1590 C.2     1  UNL1        0.2323
     17 C         138.3650  141.4520  158.2141 C.2     1  UNL1        0.0486
     18 C         138.7321  140.1217  157.6262 C.3     1  UNL1        0.2428
     19 C         140.4154  138.7478  163.8444 C.2     1  UNL1        0.2352
     20 O         140.4639  137.3529  164.3937 O.2     1  UNL1       -0.2737
     21 N         139.8750  139.8665  164.6849 N.am    1  UNL1       -0.3011
     22 H         139.8432  140.7821  164.3244 H       1  UNL1        0.1497
     23 C         139.3829  139.5902  166.0747 C.3     1  UNL1        0.0966
     24 C         140.3104  139.7452  167.2434 C.ar    1  UNL1       -0.0044
     25 C         139.7585  140.0587  168.6025 C.ar    1  UNL1       -0.0018
     26 C         140.6860  140.2136  169.7711 C.ar    1  UNL1        0.0111
     27 C         142.1654  140.0551  169.5806 C.ar    1  UNL1        0.0577
     28 CL        143.0929  140.2101  170.7493 Cl      1  UNL1       -0.0822
     29 C         142.7173  139.7417  168.2215 C.ar    1  UNL1        0.0111
     30 C         141.7898  139.5867  167.0528 C.ar    1  UNL1       -0.0018
     31 C         137.9634  139.1589  166.2959 C.3     1  UNL1        0.0558
     32 C         137.6642  137.7499  166.7144 C.3     1  UNL1        0.1392
     33 O         136.5817  137.4792  167.7170 O.3     1  UNL1       -0.3819
     34 H         136.8351  137.8532  168.5754 H       1  UNL1        0.2104
@<TRIPOS>BOND
     1     1     2    1
     2     2    19    1
     3    19    20    2
     4    19    21   am
     5    21    23    1
     6    23    31    1
     7    31    32    1
     8    32    33    1
     9    23    24    1
    10    24    25   ar
    11    25    26   ar
    12    26    27   ar
    13    27    28    1
    14    27    29   ar
    15    29    30   ar
    16     2     3    1
    17     3     4    1
    18     4     5    1
    19     5    10    1
    20    10    11    2
    21    11    12    1
    22    12    13    2
    23    13    14    1
    24    14    15    2
    25    15    16    1
    26    16    17    2
    27    17    18    1
    28     5     6    1
    29     6     7    1
    30     7     2    1
    31    30    24   ar
    32    18    10    1
    33    18    14    1
    34     1     8    1
    35     1     9    1
    36    21    22    1
    37    33    34    1
@<TRIPOS>MOLECULE
*****
 34 37 0 0 0
SMALL
GASTEIGER

@<TRIPOS>ATOM
      1 N         142.2917  138.0023  163.0132 N.3     1  UNL1       -0.3162
      2 C         141.2162  138.6796  163.8098 C.3     1  UNL1        0.1166
      3 C         139.9033  139.3236  164.1440 C.3     1  UNL1        0.0739
      4 C         139.6476  139.8284  165.5331 C.3     1  UNL1        0.2039
      5 N         140.7048  139.6893  166.5881 N.pl3   1  UNL1       -0.1931
      6 C         142.0177  139.0454  166.2540 C.3     1  UNL1        0.2039
      7 C         142.2734  138.5406  164.8648 C.3     1  UNL1        0.0739
      8 H         141.9688  137.8628  162.0558 H       1  UNL1        0.1192
      9 H         142.5085  137.0988  163.4340 H       1  UNL1        0.1192
     10 C         140.4491  140.1942  167.9773 C.2     1  UNL1        0.3205
     11 N         139.1805  139.8253  168.6877 N.2     1  UNL1        0.0097
     12 C         138.9248  140.3301  170.0767 C.2     1  UNL1        0.4717
     13 N         139.9376  141.2039  170.7556 N.2     1  UNL1        0.0158
     14 C         141.2062  141.5728  170.0452 C.2     1  UNL1        0.3714
     15 N         142.3798  142.4112  170.4572 N.2     1  UNL1       -0.0339
     16 C         143.3609  142.4244  169.3226 C.2     1  UNL1        0.2323
     17 C         142.7936  141.5943  168.2095 C.2     1  UNL1        0.0486
     18 C         141.4619  141.0680  168.6561 C.3     1  UNL1        0.2428
     19 C         140.5325  138.5835  162.4782 C.2     1  UNL1        0.2352
     20 O         139.6615  137.4030  162.1657 O.2     1  UNL1       -0.2737
     21 N         140.7199  139.6680  161.4590 N.am    1  UNL1       -0.3011
     22 H         141.2916  140.4428  161.6641 H       1  UNL1        0.1497
     23 C         140.0362  139.5720  160.1273 C.3     1  UNL1        0.0966
     24 C         140.6341  138.7346  159.0359 C.ar    1  UNL1       -0.0044
     25 C         139.7810  138.2734  157.8915 C.ar    1  UNL1       -0.0018
     26 C         140.3790  137.4360  156.8001 C.ar    1  UNL1        0.0111
     27 C         141.8301  137.0599  156.8531 C.ar    1  UNL1        0.0577
     28 CL        142.4280  136.2225  155.7616 Cl      1  UNL1       -0.0822
     29 C         142.6832  137.5211  157.9973 C.ar    1  UNL1        0.0111
     30 C         142.0853  138.3585  159.0888 C.ar    1  UNL1       -0.0018
     31 C         138.7545  140.3134  159.8871 C.3     1  UNL1        0.0558
     32 C         137.4955  139.8774  160.5762 C.3     1  UNL1        0.1392
     33 O         137.0704  140.5416  161.8522 O.3     1  UNL1       -0.3819
     34 H         137.7143  140.3433  162.5500 H       1  UNL1        0.2104
@<TRIPOS>BOND
     1     1     2    1
     2     2    19    1
     3    19    20    2
     4    19    21   am
     5    21    23    1
     6    23    31    1
     7    31    32    1
     8    32    33    1
     9    23    24    1
    10    24    25   ar
    11    25    26   ar
    12    26    27   ar
    13    27    28    1
    14    27    29   ar
    15    29    30   ar
    16     2     3    1
    17     3     4    1
    18     4     5    1
    19     5    10    1
    20    10    11    2
    21    11    12    1
    22    12    13    2
    23    13    14    1
    24    14    15    2
    25    15    16    1
    26    16    17    2
    27    17    18    1
    28     5     6    1
    29     6     7    1
    30     7     2    1
    31    30    24   ar
    32    18    10    1
    33    18    14    1
    34     1     8    1
    35     1     9    1
    36    21    22    1
    37    33    34    1
