@<TRIPOS>MOLECULE
*****
 30 33 0 0 0
SMALL
GASTEIGER

@<TRIPOS>ATOM
      1 C         142.5649  139.9464  162.7335 C.3     1  UNL1        0.0236
      2 C         141.6957  141.1360  163.0159 C.3     1  UNL1        0.0987
      3 C         141.2754  142.0405  161.8956 C.3     1  UNL1        0.1284
      4 N         140.4063  143.2300  162.1779 N.ar    1  UNL1       -0.2957
      5 C         139.9574  143.5149  163.5805 C.ar    1  UNL1        0.1636
      6 N         139.1107  144.7528  163.5539 N.ar    1  UNL1       -0.1316
      7 N         139.0363  145.2329  162.1348 N.ar    1  UNL1       -0.1290
      8 C         139.8370  144.2918  161.2844 C.ar    1  UNL1        0.1662
      9 C         140.3777  142.6103  164.7008 C.3     1  UNL1        0.1598
     10 N         141.2469  141.4208  164.4184 N.am    1  UNL1       -0.2687
     11 C         141.6672  140.5162  165.5388 C.2     1  UNL1        0.2502
     12 O         142.5363  139.3267  165.2565 O.2     1  UNL1       -0.2699
     13 C         140.0338  144.3945  159.8009 C.ar    1  UNL1        0.0361
     14 C         139.4062  143.3821  158.8892 C.ar    1  UNL1        0.0054
     15 C         139.6030  143.4848  157.4057 C.ar    1  UNL1        0.0297
     16 C         140.4274  144.5998  156.8339 C.ar    1  UNL1        0.1401
     17 F         140.6242  144.7025  155.3504 F       1  UNL1       -0.2042
     18 C         141.0550  145.6123  157.7457 C.ar    1  UNL1        0.0297
     19 C         140.8582  145.5096  159.2291 C.ar    1  UNL1        0.0054
     20 C         141.2183  140.8011  166.9414 C.ar    1  UNL1        0.0641
     21 C         139.9704  140.1615  167.4740 C.ar    1  UNL1        0.0054
     22 C         139.5215  140.4464  168.8767 C.ar    1  UNL1        0.0001
     23 C         140.3205  141.3709  169.7467 C.ar    1  UNL1        0.0047
     24 C         141.5684  142.0104  169.2140 C.ar    1  UNL1        0.0821
     25 C         142.0173  141.7255  167.8114 C.ar    1  UNL1        0.0659
     26 CL        143.2652  142.3651  167.2788 Cl      1  UNL1       -0.0822
     27 C         142.3676  142.9349  170.0840 C.3     1  UNL1        0.4194
     28 F         143.1668  143.8593  170.9539 F       1  UNL1       -0.1658
     29 F         143.4034  141.8658  170.2684 F       1  UNL1       -0.1658
     30 F         141.3317  144.0040  169.8995 F       1  UNL1       -0.1658
@<TRIPOS>BOND
     1     2     1    1
     2     2     3    1
     3     3     4    1
     4     4     5   ar
     5     5     6   ar
     6     6     7   ar
     7     7     8   ar
     8     8    13    1
     9    13    14   ar
    10    14    15   ar
    11    15    16   ar
    12    16    17    1
    13    16    18   ar
    14    18    19   ar
    15     5     9    1
    16     9    10    1
    17    10    11   am
    18    11    12    2
    19    11    20    1
    20    20    21   ar
    21    21    22   ar
    22    22    23   ar
    23    23    24   ar
    24    24    27    1
    25    27    28    1
    26    27    29    1
    27    27    30    1
    28    24    25   ar
    29    25    26    1
    30    10     2    1
    31    25    20   ar
    32     8     4   ar
    33    19    13   ar
@<TRIPOS>MOLECULE
*****
 30 33 0 0 0
SMALL
GASTEIGER

@<TRIPOS>ATOM
      1 C         141.8251  138.7184  163.3846 C.3     1  UNL1        0.0236
      2 C         140.8924  139.8882  163.4940 C.3     1  UNL1        0.0987
      3 C         140.3280  140.5159  162.2541 C.3     1  UNL1        0.1284
      4 N         139.3954  141.6856  162.3635 N.ar    1  UNL1       -0.2957
      5 C         139.0271  142.2276  163.7128 C.ar    1  UNL1        0.1636
      6 N         138.0913  143.3820  163.5091 N.ar    1  UNL1       -0.1316
      7 N         137.8812  143.5535  162.0338 N.ar    1  UNL1       -0.1290
      8 C         138.6872  142.5050  161.3258 C.ar    1  UNL1        0.1662
      9 C         139.5915  141.5998  164.9528 C.3     1  UNL1        0.1598
     10 N         140.5242  140.4301  164.8433 N.am    1  UNL1       -0.2687
     11 C         141.0886  139.8023  166.0833 C.2     1  UNL1        0.2502
     12 O         142.0213  138.6326  165.9739 O.2     1  UNL1       -0.2699
     13 C         138.7703  142.3103  159.8408 C.ar    1  UNL1        0.0361
     14 C         139.4067  143.3618  158.9810 C.ar    1  UNL1        0.0054
     15 C         139.4898  143.1671  157.4959 C.ar    1  UNL1        0.0297
     16 C         138.9366  141.9210  156.8708 C.ar    1  UNL1        0.1401
     17 F         139.0197  141.7262  155.3859 F       1  UNL1       -0.2042
     18 C         138.3002  140.8694  157.7307 C.ar    1  UNL1        0.0297
     19 C         138.2170  141.0641  159.2157 C.ar    1  UNL1        0.0054
     20 C         140.7204  140.3443  167.4326 C.ar    1  UNL1        0.0641
     21 C         139.4712  139.8717  168.1153 C.ar    1  UNL1        0.0054
     22 C         139.1029  140.4137  169.4646 C.ar    1  UNL1        0.0001
     23 C         139.9839  141.4283  170.1312 C.ar    1  UNL1        0.0047
     24 C         141.2331  141.9010  169.4485 C.ar    1  UNL1        0.0821
     25 C         141.6013  141.3590  168.0992 C.ar    1  UNL1        0.0659
     26 CL        142.8505  141.8316  167.4165 Cl      1  UNL1       -0.0822
     27 C         142.1141  142.9156  170.1151 C.3     1  UNL1        0.4194
     28 F         142.9952  143.9302  170.7817 F       1  UNL1       -0.1658
     29 F         143.0921  141.8344  170.4681 F       1  UNL1       -0.1658
     30 F         141.1361  143.9968  169.7621 F       1  UNL1       -0.1658
@<TRIPOS>BOND
     1     2     1    1
     2     2     3    1
     3     3     4    1
     4     4     5   ar
     5     5     6   ar
     6     6     7   ar
     7     7     8   ar
     8     8    13    1
     9    13    14   ar
    10    14    15   ar
    11    15    16   ar
    12    16    17    1
    13    16    18   ar
    14    18    19   ar
    15     5     9    1
    16     9    10    1
    17    10    11   am
    18    11    12    2
    19    11    20    1
    20    20    21   ar
    21    21    22   ar
    22    22    23   ar
    23    23    24   ar
    24    24    27    1
    25    27    28    1
    26    27    29    1
    27    27    30    1
    28    24    25   ar
    29    25    26    1
    30    10     2    1
    31    25    20   ar
    32     8     4   ar
    33    19    13   ar
@<TRIPOS>MOLECULE
*****
 30 33 0 0 0
SMALL
GASTEIGER

@<TRIPOS>ATOM
      1 C         138.2471  143.9366  164.9535 C.3     1  UNL1        0.0236
      2 C         139.4676  143.1762  164.5265 C.3     1  UNL1        0.0987
      3 C         140.3421  142.5229  165.5552 C.3     1  UNL1        0.1284
      4 N         141.5626  141.7625  165.1283 N.ar    1  UNL1       -0.2957
      5 C         141.9085  141.6555  163.6727 C.ar    1  UNL1        0.1636
      6 N         143.1658  140.8461  163.5533 N.ar    1  UNL1       -0.1316
      7 N         143.5969  140.4530  164.9352 N.ar    1  UNL1       -0.1290
      8 C         142.6061  141.0193  165.9086 C.ar    1  UNL1        0.1662
      9 C         141.0340  142.3088  162.6439 C.3     1  UNL1        0.1598
     10 N         139.8135  143.0692  163.0709 N.am    1  UNL1       -0.2687
     11 C         138.9389  143.7225  162.0421 C.2     1  UNL1        0.2502
     12 O         137.7184  144.4829  162.4690 O.2     1  UNL1       -0.2699
     13 C         142.6509  140.8689  167.4004 C.ar    1  UNL1        0.0361
     14 C         143.0080  142.0435  168.2622 C.ar    1  UNL1        0.0054
     15 C         143.0529  141.8931  169.7540 C.ar    1  UNL1        0.0297
     16 C         142.7406  140.5682  170.3839 C.ar    1  UNL1        0.1401
     17 F         142.7855  140.4178  171.8757 F       1  UNL1       -0.2042
     18 C         142.3835  139.3935  169.5220 C.ar    1  UNL1        0.0297
     19 C         142.3386  139.5439  168.0303 C.ar    1  UNL1        0.0054
     20 C         139.2848  143.6155  160.5865 C.ar    1  UNL1        0.0641
     21 C         138.6584  142.5444  159.7436 C.ar    1  UNL1        0.0054
     22 C         139.0044  142.4374  158.2879 C.ar    1  UNL1        0.0001
     23 C         139.9766  143.4013  157.6752 C.ar    1  UNL1        0.0047
     24 C         140.6030  144.4724  158.5182 C.ar    1  UNL1        0.0821
     25 C         140.2571  144.5794  159.9738 C.ar    1  UNL1        0.0659
     26 CL        140.8834  145.6505  160.8167 Cl      1  UNL1       -0.0822
     27 C         141.5753  145.4364  157.9055 C.3     1  UNL1        0.4194
     28 F         142.5477  146.4004  157.2930 F       1  UNL1       -0.1658
     29 F         142.7044  144.5039  158.2304 F       1  UNL1       -0.1658
     30 F         140.4462  146.3689  157.5807 F       1  UNL1       -0.1658
@<TRIPOS>BOND
     1     2     1    1
     2     2     3    1
     3     3     4    1
     4     4     5   ar
     5     5     6   ar
     6     6     7   ar
     7     7     8   ar
     8     8    13    1
     9    13    14   ar
    10    14    15   ar
    11    15    16   ar
    12    16    17    1
    13    16    18   ar
    14    18    19   ar
    15     5     9    1
    16     9    10    1
    17    10    11   am
    18    11    12    2
    19    11    20    1
    20    20    21   ar
    21    21    22   ar
    22    22    23   ar
    23    23    24   ar
    24    24    27    1
    25    27    28    1
    26    27    29    1
    27    27    30    1
    28    24    25   ar
    29    25    26    1
    30    10     2    1
    31    25    20   ar
    32     8     4   ar
    33    19    13   ar
@<TRIPOS>MOLECULE
*****
 30 33 0 0 0
SMALL
GASTEIGER

@<TRIPOS>ATOM
      1 C         144.9039  142.4252  161.0821 C.3     1  UNL1        0.0236
      2 C         143.4476  142.4810  161.4372 C.3     1  UNL1        0.0987
      3 C         142.4573  143.0359  160.4567 C.3     1  UNL1        0.1284
      4 N         141.0010  143.0917  160.8117 N.ar    1  UNL1       -0.2957
      5 C         140.5350  142.5926  162.1473 C.ar    1  UNL1        0.1636
      6 N         139.0476  142.7737  162.2166 N.ar    1  UNL1       -0.1316
      7 N         138.5943  143.3847  160.9238 N.ar    1  UNL1       -0.1290
      8 C         139.8016  143.5812  160.0556 C.ar    1  UNL1        0.1662
      9 C         141.5252  142.0377  163.1278 C.3     1  UNL1        0.1598
     10 N         142.9816  141.9819  162.7727 N.am    1  UNL1       -0.2687
     11 C         143.9719  141.4270  163.7533 C.2     1  UNL1        0.2502
     12 O         145.4282  141.3712  163.3982 O.2     1  UNL1       -0.2699
     13 C         139.8083  144.1648  158.6738 C.ar    1  UNL1        0.0361
     14 C         139.2514  143.3778  157.5246 C.ar    1  UNL1        0.0054
     15 C         139.2581  143.9614  156.1427 C.ar    1  UNL1        0.0297
     16 C         139.8215  145.3319  155.9101 C.ar    1  UNL1        0.1401
     17 F         139.8282  145.9155  154.5283 F       1  UNL1       -0.2042
     18 C         140.3783  146.1189  157.0594 C.ar    1  UNL1        0.0297
     19 C         140.3717  145.5353  158.4411 C.ar    1  UNL1        0.0054
     20 C         143.5059  140.9280  165.0889 C.ar    1  UNL1        0.0641
     21 C         143.2557  139.4637  165.2967 C.ar    1  UNL1        0.0054
     22 C         142.7897  138.9646  166.6323 C.ar    1  UNL1        0.0001
     23 C         142.5739  139.9298  167.7600 C.ar    1  UNL1        0.0047
     24 C         142.8241  141.3941  167.5522 C.ar    1  UNL1        0.0821
     25 C         143.2901  141.8932  166.2166 C.ar    1  UNL1        0.0659
     26 CL        143.5403  143.3575  166.0087 Cl      1  UNL1       -0.0822
     27 C         142.6083  142.3595  168.6798 C.3     1  UNL1        0.4194
     28 F         142.3924  143.3248  169.8074 F       1  UNL1       -0.1658
     29 F         141.2076  142.6041  168.2022 F       1  UNL1       -0.1658
     30 F         144.0090  142.1148  169.1574 F       1  UNL1       -0.1658
@<TRIPOS>BOND
     1     2     1    1
     2     2     3    1
     3     3     4    1
     4     4     5   ar
     5     5     6   ar
     6     6     7   ar
     7     7     8   ar
     8     8    13    1
     9    13    14   ar
    10    14    15   ar
    11    15    16   ar
    12    16    17    1
    13    16    18   ar
    14    18    19   ar
    15     5     9    1
    16     9    10    1
    17    10    11   am
    18    11    12    2
    19    11    20    1
    20    20    21   ar
    21    21    22   ar
    22    22    23   ar
    23    23    24   ar
    24    24    27    1
    25    27    28    1
    26    27    29    1
    27    27    30    1
    28    24    25   ar
    29    25    26    1
    30    10     2    1
    31    25    20   ar
    32     8     4   ar
    33    19    13   ar
@<TRIPOS>MOLECULE
*****
 30 33 0 0 0
SMALL
GASTEIGER

@<TRIPOS>ATOM
      1 C         138.8547  144.7515  164.6996 C.3     1  UNL1        0.0236
      2 C         139.9989  143.8685  164.2978 C.3     1  UNL1        0.0987
      3 C         140.7412  143.0830  165.3379 C.3     1  UNL1        0.1284
      4 N         141.8853  142.2000  164.9361 N.ar    1  UNL1       -0.2957
      5 C         142.2870  142.1026  163.4942 C.ar    1  UNL1        0.1636
      6 N         143.4470  141.1563  163.3991 N.ar    1  UNL1       -0.1316
      7 N         143.7622  140.6690  164.7823 N.ar    1  UNL1       -0.1290
      8 C         142.7970  141.3140  165.7322 C.ar    1  UNL1        0.1662
      9 C         141.5447  142.8881  162.4541 C.3     1  UNL1        0.1598
     10 N         140.4006  143.7711  162.8559 N.am    1  UNL1       -0.2687
     11 C         139.6582  144.5566  161.8158 C.2     1  UNL1        0.2502
     12 O         138.5141  145.4396  162.2175 O.2     1  UNL1       -0.2699
     13 C         142.7515  141.1090  167.2174 C.ar    1  UNL1        0.0361
     14 C         143.1219  142.2313  168.1411 C.ar    1  UNL1        0.0054
     15 C         143.0764  142.0263  169.6264 C.ar    1  UNL1        0.0297
     16 C         142.6606  140.6990  170.1879 C.ar    1  UNL1        0.1401
     17 F         142.6151  140.4940  171.6731 F       1  UNL1       -0.2042
     18 C         142.2902  139.5767  169.2641 C.ar    1  UNL1        0.0297
     19 C         142.3357  139.7816  167.7789 C.ar    1  UNL1        0.0054
     20 C         140.0599  144.4592  160.3738 C.ar    1  UNL1        0.0641
     21 C         141.0523  145.4292  159.8046 C.ar    1  UNL1        0.0054
     22 C         141.4541  145.3318  158.3627 C.ar    1  UNL1        0.0001
     23 C         140.8634  144.2643  157.4900 C.ar    1  UNL1        0.0047
     24 C         139.8710  143.2942  158.0593 C.ar    1  UNL1        0.0821
     25 C         139.4693  143.3917  159.5012 C.ar    1  UNL1        0.0659
     26 CL        138.4769  142.4216  160.0705 Cl      1  UNL1       -0.0822
     27 C         139.2803  142.2266  157.1867 C.3     1  UNL1        0.4194
     28 F         138.6896  141.1590  156.3142 F       1  UNL1       -0.1658
     29 F         140.3869  141.2934  157.5795 F       1  UNL1       -0.1658
     30 F         138.1736  143.1599  156.7940 F       1  UNL1       -0.1658
@<TRIPOS>BOND
     1     2     1    1
     2     2     3    1
     3     3     4    1
     4     4     5   ar
     5     5     6   ar
     6     6     7   ar
     7     7     8   ar
     8     8    13    1
     9    13    14   ar
    10    14    15   ar
    11    15    16   ar
    12    16    17    1
    13    16    18   ar
    14    18    19   ar
    15     5     9    1
    16     9    10    1
    17    10    11   am
    18    11    12    2
    19    11    20    1
    20    20    21   ar
    21    21    22   ar
    22    22    23   ar
    23    23    24   ar
    24    24    27    1
    25    27    28    1
    26    27    29    1
    27    27    30    1
    28    24    25   ar
    29    25    26    1
    30    10     2    1
    31    25    20   ar
    32     8     4   ar
    33    19    13   ar
@<TRIPOS>MOLECULE
*****
 30 33 0 0 0
SMALL
GASTEIGER

@<TRIPOS>ATOM
      1 C         142.3529  139.4366  162.3299 C.3     1  UNL1        0.0236
      2 C         141.3388  140.5144  162.5753 C.3     1  UNL1        0.0987
      3 C         141.1295  141.5935  161.5547 C.3     1  UNL1        0.1284
      4 N         140.1155  142.6713  161.8001 N.ar    1  UNL1       -0.2957
      5 C         139.3109  142.6700  163.0660 C.ar    1  UNL1        0.1636
      6 N         138.3905  143.8539  163.0316 N.ar    1  UNL1       -0.1316
      7 N         138.6263  144.5869  161.7443 N.ar    1  UNL1       -0.1290
      8 C         139.6924  143.8561  160.9832 C.ar    1  UNL1        0.1662
      9 C         139.5202  141.5909  164.0866 C.3     1  UNL1        0.1598
     10 N         140.5343  140.5131  163.8412 N.am    1  UNL1       -0.2687
     11 C         140.7437  139.4339  164.8619 C.2     1  UNL1        0.2502
     12 O         141.7576  138.3561  164.6165 O.2     1  UNL1       -0.2699
     13 C         140.2393  144.2422  159.6409 C.ar    1  UNL1        0.0361
     14 C         141.2986  145.2992  159.5385 C.ar    1  UNL1        0.0054
     15 C         141.8456  145.6854  158.1962 C.ar    1  UNL1        0.0297
     16 C         141.3332  145.0145  156.9563 C.ar    1  UNL1        0.1401
     17 F         141.8801  145.4007  155.6140 F       1  UNL1       -0.2042
     18 C         140.2738  143.9575  157.0588 C.ar    1  UNL1        0.0297
     19 C         139.7269  143.5713  158.4010 C.ar    1  UNL1        0.0054
     20 C         139.9391  139.4325  166.1278 C.ar    1  UNL1        0.0641
     21 C         138.5623  138.8373  166.1408 C.ar    1  UNL1        0.0054
     22 C         137.7577  138.8360  167.4068 C.ar    1  UNL1        0.0001
     23 C         138.3299  139.4299  168.6597 C.ar    1  UNL1        0.0047
     24 C         139.7066  140.0251  168.6467 C.ar    1  UNL1        0.0821
     25 C         140.5112  140.0265  167.3808 C.ar    1  UNL1        0.0659
     26 CL        141.8880  140.6217  167.3677 Cl      1  UNL1       -0.0822
     27 C         140.2789  140.6191  169.8996 C.3     1  UNL1        0.4194
     28 F         140.8511  141.2132  171.1525 F       1  UNL1       -0.1658
     29 F         139.6336  141.9328  169.5715 F       1  UNL1       -0.1658
     30 F         140.9242  139.3054  170.2277 F       1  UNL1       -0.1658
@<TRIPOS>BOND
     1     2     1    1
     2     2     3    1
     3     3     4    1
     4     4     5   ar
     5     5     6   ar
     6     6     7   ar
     7     7     8   ar
     8     8    13    1
     9    13    14   ar
    10    14    15   ar
    11    15    16   ar
    12    16    17    1
    13    16    18   ar
    14    18    19   ar
    15     5     9    1
    16     9    10    1
    17    10    11   am
    18    11    12    2
    19    11    20    1
    20    20    21   ar
    21    21    22   ar
    22    22    23   ar
    23    23    24   ar
    24    24    27    1
    25    27    28    1
    26    27    29    1
    27    27    30    1
    28    24    25   ar
    29    25    26    1
    30    10     2    1
    31    25    20   ar
    32     8     4   ar
    33    19    13   ar
@<TRIPOS>MOLECULE
*****
 30 33 0 0 0
SMALL
GASTEIGER

@<TRIPOS>ATOM
      1 C         138.6132  141.8279  161.2903 C.3     1  UNL1        0.0236
      2 C         139.7457  140.9432  161.7202 C.3     1  UNL1        0.0987
      3 C         140.6628  140.3470  160.6939 C.3     1  UNL1        0.1284
      4 N         141.7954  139.4623  161.1237 N.ar    1  UNL1       -0.2957
      5 C         142.0108  139.1739  162.5798 C.ar    1  UNL1        0.1636
      6 N         143.2028  138.2716  162.7023 N.ar    1  UNL1       -0.1316
      7 N         143.7241  138.0024  161.3218 N.ar    1  UNL1       -0.1290
      8 C         142.8542  138.7383  160.3462 C.ar    1  UNL1        0.1662
      9 C         141.0937  139.7702  163.6062 C.3     1  UNL1        0.1598
     10 N         139.9611  140.6548  163.1763 N.am    1  UNL1       -0.2687
     11 C         139.0440  141.2511  164.2027 C.2     1  UNL1        0.2502
     12 O         137.9114  142.1358  163.7729 O.2     1  UNL1       -0.2699
     13 C         143.0151  138.7484  158.8549 C.ar    1  UNL1        0.0361
     14 C         143.5365  139.9740  158.1650 C.ar    1  UNL1        0.0054
     15 C         143.6974  139.9841  156.6736 C.ar    1  UNL1        0.0297
     16 C         143.3368  138.7686  155.8722 C.ar    1  UNL1        0.1401
     17 F         143.4977  138.7787  154.3809 F       1  UNL1       -0.2042
     18 C         142.8154  137.5429  156.5621 C.ar    1  UNL1        0.0297
     19 C         142.6545  137.5328  158.0534 C.ar    1  UNL1        0.0054
     20 C         139.2594  140.9627  165.6589 C.ar    1  UNL1        0.0641
     21 C         138.6154  139.7636  166.2892 C.ar    1  UNL1        0.0054
     22 C         138.8308  139.4751  167.7454 C.ar    1  UNL1        0.0001
     23 C         139.6902  140.3859  168.5712 C.ar    1  UNL1        0.0047
     24 C         140.3342  141.5850  167.9409 C.ar    1  UNL1        0.0821
     25 C         140.1188  141.8734  166.4847 C.ar    1  UNL1        0.0659
     26 CL        140.7628  143.0726  165.8543 Cl      1  UNL1       -0.0822
     27 C         141.1937  142.4958  168.7666 C.3     1  UNL1        0.4194
     28 F         142.0532  143.4066  169.5923 F       1  UNL1       -0.1658
     29 F         142.3980  141.6698  168.4242 F       1  UNL1       -0.1658
     30 F         139.9894  143.3218  169.1090 F       1  UNL1       -0.1658
@<TRIPOS>BOND
     1     2     1    1
     2     2     3    1
     3     3     4    1
     4     4     5   ar
     5     5     6   ar
     6     6     7   ar
     7     7     8   ar
     8     8    13    1
     9    13    14   ar
    10    14    15   ar
    11    15    16   ar
    12    16    17    1
    13    16    18   ar
    14    18    19   ar
    15     5     9    1
    16     9    10    1
    17    10    11   am
    18    11    12    2
    19    11    20    1
    20    20    21   ar
    21    21    22   ar
    22    22    23   ar
    23    23    24   ar
    24    24    27    1
    25    27    28    1
    26    27    29    1
    27    27    30    1
    28    24    25   ar
    29    25    26    1
    30    10     2    1
    31    25    20   ar
    32     8     4   ar
    33    19    13   ar
@<TRIPOS>MOLECULE
*****
 30 33 0 0 0
SMALL
GASTEIGER

@<TRIPOS>ATOM
      1 C         143.1103  140.1979  162.4974 C.3     1  UNL1        0.0236
      2 C         142.2332  141.3601  162.8581 C.3     1  UNL1        0.0987
      3 C         141.5686  142.1615  161.7782 C.3     1  UNL1        0.1284
      4 N         140.6915  143.3237  162.1388 N.ar    1  UNL1       -0.2957
      5 C         140.4791  143.6845  163.5792 C.ar    1  UNL1        0.1636
      6 N         139.5669  144.8743  163.6294 N.ar    1  UNL1       -0.1316
      7 N         139.2156  145.2487  162.2200 N.ar    1  UNL1       -0.1290
      8 C         139.9106  144.2905  161.2987 C.ar    1  UNL1        0.1662
      9 C         141.1437  142.8832  164.6590 C.3     1  UNL1        0.1598
     10 N         142.0207  141.7209  164.2984 N.am    1  UNL1       -0.2687
     11 C         142.6854  140.9194  165.3783 C.2     1  UNL1        0.2502
     12 O         143.5624  139.7572  165.0177 O.2     1  UNL1       -0.2699
     13 C         139.8376  144.2977  159.8006 C.ar    1  UNL1        0.0361
     14 C         140.3891  145.4594  159.0284 C.ar    1  UNL1        0.0054
     15 C         140.3161  145.4667  157.5301 C.ar    1  UNL1        0.0297
     16 C         139.6916  144.3123  156.8041 C.ar    1  UNL1        0.1401
     17 F         139.6186  144.3195  155.3059 F       1  UNL1       -0.2042
     18 C         139.1401  143.1505  157.5764 C.ar    1  UNL1        0.0297
     19 C         139.2131  143.1432  159.0745 C.ar    1  UNL1        0.0054
     20 C         142.4729  141.2802  166.8186 C.ar    1  UNL1        0.0641
     21 C         143.4088  142.2352  167.4985 C.ar    1  UNL1        0.0054
     22 C         143.1963  142.5960  168.9389 C.ar    1  UNL1        0.0001
     23 C         142.0480  142.0019  169.6994 C.ar    1  UNL1        0.0047
     24 C         141.1121  141.0469  169.0195 C.ar    1  UNL1        0.0821
     25 C         141.3246  140.6861  167.5791 C.ar    1  UNL1        0.0659
     26 CL        140.3888  139.7312  166.8992 Cl      1  UNL1       -0.0822
     27 C         139.9637  140.4527  169.7799 C.3     1  UNL1        0.4194
     28 F         138.8155  139.8584  170.5404 F       1  UNL1       -0.1658
     29 F         140.7843  139.2294  170.0630 F       1  UNL1       -0.1658
     30 F         139.1433  141.6761  169.4968 F       1  UNL1       -0.1658
@<TRIPOS>BOND
     1     2     1    1
     2     2     3    1
     3     3     4    1
     4     4     5   ar
     5     5     6   ar
     6     6     7   ar
     7     7     8   ar
     8     8    13    1
     9    13    14   ar
    10    14    15   ar
    11    15    16   ar
    12    16    17    1
    13    16    18   ar
    14    18    19   ar
    15     5     9    1
    16     9    10    1
    17    10    11   am
    18    11    12    2
    19    11    20    1
    20    20    21   ar
    21    21    22   ar
    22    22    23   ar
    23    23    24   ar
    24    24    27    1
    25    27    28    1
    26    27    29    1
    27    27    30    1
    28    24    25   ar
    29    25    26    1
    30    10     2    1
    31    25    20   ar
    32     8     4   ar
    33    19    13   ar
@<TRIPOS>MOLECULE
*****
 30 33 0 0 0
SMALL
GASTEIGER

@<TRIPOS>ATOM
      1 C         137.4071  141.6449  162.5963 C.3     1  UNL1        0.0236
      2 C         138.7709  142.2171  162.3455 C.3     1  UNL1        0.0987
      3 C         139.0699  142.8995  161.0436 C.3     1  UNL1        0.1284
      4 N         140.4336  143.4717  160.7927 N.ar    1  UNL1       -0.2957
      5 C         141.4982  143.3615  161.8436 C.ar    1  UNL1        0.1636
      6 N         142.7402  144.0164  161.3158 N.ar    1  UNL1       -0.1316
      7 N         142.4432  144.5313  159.9386 N.ar    1  UNL1       -0.1290
      8 C         141.0176  144.1947  159.6153 C.ar    1  UNL1        0.1662
      9 C         141.1992  142.6791  163.1455 C.3     1  UNL1        0.1598
     10 N         139.8354  142.1069  163.3963 N.am    1  UNL1       -0.2687
     11 C         139.5363  141.4244  164.6983 C.2     1  UNL1        0.2502
     12 O         138.1727  140.8522  164.9492 O.2     1  UNL1       -0.2699
     13 C         140.3018  144.5234  158.3387 C.ar    1  UNL1        0.0361
     14 C         140.3520  145.9179  157.7884 C.ar    1  UNL1        0.0054
     15 C         139.6361  146.2466  156.5118 C.ar    1  UNL1        0.0297
     16 C         138.8702  145.1808  155.7856 C.ar    1  UNL1        0.1401
     17 F         138.1544  145.5095  154.5091 F       1  UNL1       -0.2042
     18 C         138.8201  143.7863  156.3360 C.ar    1  UNL1        0.0297
     19 C         139.5359  143.4576  157.6125 C.ar    1  UNL1        0.0054
     20 C         140.6010  141.3142  165.7492 C.ar    1  UNL1        0.0641
     21 C         140.8126  142.4355  166.7228 C.ar    1  UNL1        0.0054
     22 C         141.8773  142.3253  167.7738 C.ar    1  UNL1        0.0001
     23 C         142.7302  141.0938  167.8511 C.ar    1  UNL1        0.0047
     24 C         142.5185  139.9726  166.8775 C.ar    1  UNL1        0.0821
     25 C         141.4539  140.0828  165.8265 C.ar    1  UNL1        0.0659
     26 CL        141.2422  138.9615  164.8529 Cl      1  UNL1       -0.0822
     27 C         143.3715  138.7410  166.9547 C.3     1  UNL1        0.4194
     28 F         144.2244  137.5096  167.0318 F       1  UNL1       -0.1658
     29 F         143.8995  139.0206  165.5788 F       1  UNL1       -0.1658
     30 F         142.8434  138.4616  168.3305 F       1  UNL1       -0.1658
@<TRIPOS>BOND
     1     2     1    1
     2     2     3    1
     3     3     4    1
     4     4     5   ar
     5     5     6   ar
     6     6     7   ar
     7     7     8   ar
     8     8    13    1
     9    13    14   ar
    10    14    15   ar
    11    15    16   ar
    12    16    17    1
    13    16    18   ar
    14    18    19   ar
    15     5     9    1
    16     9    10    1
    17    10    11   am
    18    11    12    2
    19    11    20    1
    20    20    21   ar
    21    21    22   ar
    22    22    23   ar
    23    23    24   ar
    24    24    27    1
    25    27    28    1
    26    27    29    1
    27    27    30    1
    28    24    25   ar
    29    25    26    1
    30    10     2    1
    31    25    20   ar
    32     8     4   ar
    33    19    13   ar
