@<TRIPOS>MOLECULE
*****
 40 43 0 0 0
SMALL
GASTEIGER

@<TRIPOS>ATOM
      1 C         139.3126  142.6142  158.0719 C.ar    1  UNL1        0.0807
      2 C         140.4146  141.6029  158.1850 C.ar    1  UNL1        0.0194
      3 C         140.5415  140.7673  159.4242 C.ar    1  UNL1        0.0375
      4 C         139.5663  140.9430  160.5503 C.ar    1  UNL1        0.1559
      5 N         138.4642  141.9542  160.4372 N.ar    1  UNL1       -0.1331
      6 N         138.3374  142.7898  159.1980 N.ar    1  UNL1       -0.1512
      7 N         139.6931  140.1073  161.7895 N.am    1  UNL1       -0.2676
      8 C         138.6101  139.1351  162.1527 C.2     1  UNL1        0.2332
      9 O         137.4002  138.9986  161.2766 O.2     1  UNL1       -0.2743
     10 H         140.4872  140.1969  162.3645 H       1  UNL1        0.1563
     11 C         138.7370  138.2994  163.3919 C.3     1  UNL1        0.1311
     12 C         139.6346  138.7447  164.5081 C.ar    1  UNL1        0.0708
     13 C         139.0431  139.2877  165.7751 C.ar    1  UNL1        0.0521
     14 C         139.9407  139.7329  166.8913 C.ar    1  UNL1        0.1407
     15 C         141.4300  139.6352  166.7405 C.ar    1  UNL1        0.0516
     16 C         142.0215  139.0923  165.4736 C.ar    1  UNL1        0.0620
     17 C         143.5107  138.9946  165.3228 C.3     1  UNL1        0.0522
     18 N         141.1238  138.6470  164.3573 N.ar    1  UNL1       -0.2533
     19 O         139.3491  140.2759  168.1583 O.3     1  UNL1       -0.4787
     20 C         140.1590  141.1845  169.0349 C.3     1  UNL1        0.1768
     21 C         140.8887  141.0295  170.3363 C.3     1  UNL1        0.1103
     22 C         141.3043  142.4695  170.2747 C.3     1  UNL1        0.2709
     23 F         141.7199  143.9094  170.2133 F       1  UNL1       -0.2041
     24 F         142.0340  142.3144  171.5761 F       1  UNL1       -0.2041
     25 C         140.5745  142.6245  168.9734 C.3     1  UNL1        0.1103
     26 C         139.1857  143.4499  156.8327 C.3     1  UNL1        0.0505
     27 C         140.2546  144.4432  156.4852 C.3     1  UNL1        0.0437
     28 C         140.5403  145.5910  157.4077 C.3     1  UNL1        0.1856
     29 F         139.6981  146.8307  157.3454 F       1  UNL1       -0.2351
     30 C         141.6681  145.4992  158.3923 C.3     1  UNL1        0.1643
     31 C         140.2616  144.8238  161.9463 C.ar    1  UNL1        0.1762
     32 C         140.0940  145.3361  160.5465 C.ar    1  UNL1        0.1223
     33 N         141.3897  145.1303  159.8193 N.ar    1  UNL1       -0.2272
     34 N         142.3582  144.4909  160.7697 N.ar    1  UNL1       -0.0636
     35 N         141.6610  144.3014  162.0842 N.ar    1  UNL1       -0.1241
     36 C         138.5664  144.9933  165.5306 C.3     1  UNL1        0.1110
     37 N         139.6142  144.9847  164.4572 N.am    1  UNL1       -0.2978
     38 C         139.2139  144.8324  163.0197 C.2     1  UNL1        0.2670
     39 O         137.7659  144.6887  162.6556 O.2     1  UNL1       -0.2684
     40 H         140.5645  145.0790  164.6963 H       1  UNL1        0.1498
@<TRIPOS>BOND
     1    36    37    1
     2    37    38   am
     3    38    39    2
     4    38    31    1
     5    31    32   ar
     6    32    33   ar
     7    33    30    1
     8    30    28    1
     9    28    29    1
    10    28    27    1
    11    27    26    1
    12    26     1    1
    13     1     2   ar
    14     2     3   ar
    15     3     4   ar
    16     4     7    1
    17     7     8   am
    18     8     9    2
    19     8    11    1
    20    11    12    1
    21    12    13   ar
    22    13    14   ar
    23    14    19    1
    24    19    20    1
    25    20    21    1
    26    21    22    1
    27    22    23    1
    28    22    24    1
    29    22    25    1
    30    14    15   ar
    31    15    16   ar
    32    16    17    1
    33    16    18   ar
    34     4     5   ar
    35     5     6   ar
    36    33    34   ar
    37    34    35   ar
    38    35    31   ar
    39     6     1   ar
    40    18    12   ar
    41    25    20    1
    42    37    40    1
    43     7    10    1
@<TRIPOS>MOLECULE
*****
 40 43 0 0 0
SMALL
GASTEIGER

@<TRIPOS>ATOM
      1 C         142.7684  139.9643  167.8773 C.ar    1  UNL1        0.0807
      2 C         143.2272  138.5875  167.4980 C.ar    1  UNL1        0.0194
      3 C         143.6981  138.3124  166.1007 C.ar    1  UNL1        0.0375
      4 C         143.7101  139.4141  165.0827 C.ar    1  UNL1        0.1559
      5 N         143.2512  140.7908  165.4621 N.ar    1  UNL1       -0.1331
      6 N         142.7803  141.0659  166.8594 N.ar    1  UNL1       -0.1512
      7 N         144.1810  139.1389  163.6853 N.am    1  UNL1       -0.2676
      8 C         143.3108  138.3659  162.7392 C.2     1  UNL1        0.2332
      9 O         141.9697  137.8681  163.1904 O.2     1  UNL1       -0.2743
     10 H         145.0612  139.4656  163.3892 H       1  UNL1        0.1563
     11 C         143.7817  138.0907  161.3418 C.3     1  UNL1        0.1311
     12 C         143.6723  139.1548  160.2903 C.ar    1  UNL1        0.0708
     13 C         143.7891  140.6009  160.6716 C.ar    1  UNL1        0.0521
     14 C         143.6797  141.6650  159.6201 C.ar    1  UNL1        0.1407
     15 C         143.4536  141.2830  158.1872 C.ar    1  UNL1        0.0516
     16 C         143.3368  139.8370  157.8059 C.ar    1  UNL1        0.0620
     17 C         143.1106  139.4551  156.3731 C.3     1  UNL1        0.0522
     18 N         143.4462  138.7729  158.8575 N.ar    1  UNL1       -0.2533
     19 O         143.7965  143.1110  160.0014 O.3     1  UNL1       -0.4787
     20 C         143.5660  143.5329  161.4222 C.3     1  UNL1        0.1768
     21 C         144.4073  143.5851  162.6630 C.3     1  UNL1        0.1103
     22 C         143.2400  144.1297  163.4316 C.3     1  UNL1        0.2709
     23 F         142.0728  144.6743  164.2003 F       1  UNL1       -0.2041
     24 F         144.0813  144.1818  164.6723 F       1  UNL1       -0.2041
     25 C         142.3987  144.0776  162.1908 C.3     1  UNL1        0.1103
     26 C         142.2974  140.2395  169.2747 C.3     1  UNL1        0.0505
     27 C         141.5245  141.4898  169.5731 C.3     1  UNL1        0.0437
     28 C         140.0442  141.4191  169.8051 C.3     1  UNL1        0.1856
     29 F         139.3076  142.6199  170.3205 F       1  UNL1       -0.2351
     30 C         139.3005  140.1477  169.5217 C.3     1  UNL1        0.1643
     31 C         138.7462  139.8212  165.6940 C.ar    1  UNL1        0.1762
     32 C         139.4154  140.4678  166.8704 C.ar    1  UNL1        0.1223
     33 N         138.8990  139.8110  168.1162 N.ar    1  UNL1       -0.2272
     34 N         137.9108  138.7584  167.7098 N.ar    1  UNL1       -0.0636
     35 N         137.8163  138.7646  166.2128 N.ar    1  UNL1       -0.1241
     36 C         140.5631  140.8829  162.3292 C.3     1  UNL1        0.1110
     37 N         140.3413  140.5342  163.7712 N.am    1  UNL1       -0.2978
     38 C         138.9680  140.1698  164.2521 C.2     1  UNL1        0.2670
     39 O         137.8165  140.1540  163.2910 O.2     1  UNL1       -0.2684
     40 H         141.0971  140.5446  164.4020 H       1  UNL1        0.1498
@<TRIPOS>BOND
     1    36    37    1
     2    37    38   am
     3    38    39    2
     4    38    31    1
     5    31    32   ar
     6    32    33   ar
     7    33    30    1
     8    30    28    1
     9    28    29    1
    10    28    27    1
    11    27    26    1
    12    26     1    1
    13     1     2   ar
    14     2     3   ar
    15     3     4   ar
    16     4     7    1
    17     7     8   am
    18     8     9    2
    19     8    11    1
    20    11    12    1
    21    12    13   ar
    22    13    14   ar
    23    14    19    1
    24    19    20    1
    25    20    21    1
    26    21    22    1
    27    22    23    1
    28    22    24    1
    29    22    25    1
    30    14    15   ar
    31    15    16   ar
    32    16    17    1
    33    16    18   ar
    34     4     5   ar
    35     5     6   ar
    36    33    34   ar
    37    34    35   ar
    38    35    31   ar
    39     6     1   ar
    40    18    12   ar
    41    25    20    1
    42    37    40    1
    43     7    10    1
@<TRIPOS>MOLECULE
*****
 40 43 0 0 0
SMALL
GASTEIGER

@<TRIPOS>ATOM
      1 C         137.8920  141.9539  157.6670 C.ar    1  UNL1        0.0807
      2 C         138.6463  142.6937  158.7317 C.ar    1  UNL1        0.0194
      3 C         138.8707  142.0575  160.0714 C.ar    1  UNL1        0.0375
      4 C         138.3408  140.6814  160.3463 C.ar    1  UNL1        0.1559
      5 N         137.5865  139.9416  159.2816 N.ar    1  UNL1       -0.1331
      6 N         137.3621  140.5778  157.9420 N.ar    1  UNL1       -0.1512
      7 N         138.5653  140.0451  161.6861 N.am    1  UNL1       -0.2676
      8 C         137.8744  140.5906  162.9006 C.2     1  UNL1        0.2332
      9 O         136.9590  141.7723  162.7755 O.2     1  UNL1       -0.2743
     10 H         139.1661  139.2695  161.7683 H       1  UNL1        0.1563
     11 C         138.0989  139.9544  164.2404 C.3     1  UNL1        0.1311
     12 C         139.4820  139.8881  164.8169 C.ar    1  UNL1        0.0708
     13 C         139.6865  140.0403  166.2951 C.ar    1  UNL1        0.0521
     14 C         141.0697  139.9741  166.8716 C.ar    1  UNL1        0.1407
     15 C         142.2484  139.7555  165.9699 C.ar    1  UNL1        0.0516
     16 C         142.0439  139.6033  164.4918 C.ar    1  UNL1        0.0620
     17 C         143.2225  139.3848  163.5901 C.3     1  UNL1        0.0522
     18 N         140.6606  139.6696  163.9153 N.ar    1  UNL1       -0.2533
     19 O         141.2742  140.1263  168.3498 O.3     1  UNL1       -0.4787
     20 C         140.7930  141.3624  169.0501 C.3     1  UNL1        0.1768
     21 C         139.8149  141.6446  170.1518 C.3     1  UNL1        0.1103
     22 C         140.1125  143.1106  170.0405 C.3     1  UNL1        0.2709
     23 F         140.4101  144.5765  169.9294 F       1  UNL1       -0.2041
     24 F         139.1344  143.3927  171.1422 F       1  UNL1       -0.2041
     25 C         141.0906  142.8284  168.9388 C.3     1  UNL1        0.1103
     26 C         137.6675  142.5902  156.3272 C.3     1  UNL1        0.0505
     27 C         138.7727  143.3613  155.6686 C.3     1  UNL1        0.0437
     28 C         138.5854  144.8146  155.3476 C.3     1  UNL1        0.1856
     29 F         137.3022  145.2870  154.7308 F       1  UNL1       -0.2351
     30 C         139.6811  145.7953  155.6433 C.3     1  UNL1        0.1643
     31 C         141.0829  145.4773  159.2487 C.ar    1  UNL1        0.1762
     32 C         139.9299  145.6051  158.2979 C.ar    1  UNL1        0.1223
     33 N         140.4824  145.6666  156.9047 N.ar    1  UNL1       -0.2272
     34 N         141.9770  145.5768  156.9945 N.ar    1  UNL1       -0.0636
     35 N         142.3482  145.4598  158.4431 N.ar    1  UNL1       -0.1241
     36 C         142.1112  144.9612  163.0469 C.3     1  UNL1        0.1110
     37 N         142.2065  145.0551  161.5529 N.am    1  UNL1       -0.2978
     38 C         140.9876  145.3835  160.7427 C.2     1  UNL1        0.2670
     39 O         139.6734  145.6180  161.4266 O.2     1  UNL1       -0.2684
     40 H         143.0691  144.9011  161.1041 H       1  UNL1        0.1498
@<TRIPOS>BOND
     1    36    37    1
     2    37    38   am
     3    38    39    2
     4    38    31    1
     5    31    32   ar
     6    32    33   ar
     7    33    30    1
     8    30    28    1
     9    28    29    1
    10    28    27    1
    11    27    26    1
    12    26     1    1
    13     1     2   ar
    14     2     3   ar
    15     3     4   ar
    16     4     7    1
    17     7     8   am
    18     8     9    2
    19     8    11    1
    20    11    12    1
    21    12    13   ar
    22    13    14   ar
    23    14    19    1
    24    19    20    1
    25    20    21    1
    26    21    22    1
    27    22    23    1
    28    22    24    1
    29    22    25    1
    30    14    15   ar
    31    15    16   ar
    32    16    17    1
    33    16    18   ar
    34     4     5   ar
    35     5     6   ar
    36    33    34   ar
    37    34    35   ar
    38    35    31   ar
    39     6     1   ar
    40    18    12   ar
    41    25    20    1
    42    37    40    1
    43     7    10    1
@<TRIPOS>MOLECULE
*****
 40 43 0 0 0
SMALL
GASTEIGER

@<TRIPOS>ATOM
      1 C         138.8808  139.9295  158.5730 C.ar    1  UNL1        0.0807
      2 C         140.1422  139.9086  159.3845 C.ar    1  UNL1        0.0194
      3 C         140.0718  139.9663  160.8817 C.ar    1  UNL1        0.0375
      4 C         138.7400  140.0448  161.5674 C.ar    1  UNL1        0.1559
      5 N         137.4787  140.0657  160.7560 N.ar    1  UNL1       -0.1331
      6 N         137.5490  140.0080  159.2588 N.ar    1  UNL1       -0.1512
      7 N         138.6697  140.1025  163.0647 N.am    1  UNL1       -0.2676
      8 C         138.6479  138.8334  163.8640 C.2     1  UNL1        0.2332
      9 O         138.6965  137.5066  163.1660 O.2     1  UNL1       -0.2743
     10 H         138.6378  140.9734  163.5228 H       1  UNL1        0.1563
     11 C         138.5776  138.8911  165.3613 C.3     1  UNL1        0.1311
     12 C         139.8114  139.1933  166.1590 C.ar    1  UNL1        0.0708
     13 C         141.1667  138.9278  165.5736 C.ar    1  UNL1        0.0521
     14 C         142.4005  139.2300  166.3713 C.ar    1  UNL1        0.1407
     15 C         142.2790  139.7978  167.7544 C.ar    1  UNL1        0.0516
     16 C         140.9237  140.0634  168.3397 C.ar    1  UNL1        0.0620
     17 C         140.8022  140.6312  169.7228 C.3     1  UNL1        0.0522
     18 N         139.6899  139.7611  167.5420 N.ar    1  UNL1       -0.2533
     19 O         143.7558  138.9644  165.7860 O.3     1  UNL1       -0.4787
     20 C         144.1718  139.6478  164.5172 C.3     1  UNL1        0.1768
     21 C         143.9090  139.4253  163.0572 C.3     1  UNL1        0.1103
     22 C         144.7602  140.6142  162.7228 C.3     1  UNL1        0.2709
     23 F         145.6113  141.8031  162.3882 F       1  UNL1       -0.2041
     24 F         144.4973  140.3917  161.2629 F       1  UNL1       -0.2041
     25 C         145.0230  140.8367  164.1827 C.3     1  UNL1        0.1103
     26 C         138.9511  139.8718  157.0757 C.3     1  UNL1        0.0505
     27 C         138.9957  141.1410  156.2776 C.3     1  UNL1        0.0437
     28 C         138.5304  142.4289  156.8899 C.3     1  UNL1        0.1856
     29 F         137.0666  142.7536  156.9317 F       1  UNL1       -0.2351
     30 C         139.5289  143.3919  157.4605 C.3     1  UNL1        0.1643
     31 C         140.8434  143.5927  161.1070 C.ar    1  UNL1        0.1762
     32 C         141.0841  143.5781  159.6265 C.ar    1  UNL1        0.1223
     33 N         139.7557  143.4469  158.9422 N.ar    1  UNL1       -0.2272
     34 N         138.6941  143.3803  159.9997 N.ar    1  UNL1       -0.0636
     35 N         139.3663  143.4704  161.3376 N.ar    1  UNL1       -0.1241
     36 C         143.9421  144.9466  163.1842 C.3     1  UNL1        0.1110
     37 N         142.8904  144.8303  162.1210 N.am    1  UNL1       -0.2978
     38 C         141.8952  143.7091  162.1701 C.2     1  UNL1        0.2670
     39 O         141.9517  142.7043  163.2824 O.2     1  UNL1       -0.2684
     40 H         142.8533  145.4898  161.3910 H       1  UNL1        0.1498
@<TRIPOS>BOND
     1    36    37    1
     2    37    38   am
     3    38    39    2
     4    38    31    1
     5    31    32   ar
     6    32    33   ar
     7    33    30    1
     8    30    28    1
     9    28    29    1
    10    28    27    1
    11    27    26    1
    12    26     1    1
    13     1     2   ar
    14     2     3   ar
    15     3     4   ar
    16     4     7    1
    17     7     8   am
    18     8     9    2
    19     8    11    1
    20    11    12    1
    21    12    13   ar
    22    13    14   ar
    23    14    19    1
    24    19    20    1
    25    20    21    1
    26    21    22    1
    27    22    23    1
    28    22    24    1
    29    22    25    1
    30    14    15   ar
    31    15    16   ar
    32    16    17    1
    33    16    18   ar
    34     4     5   ar
    35     5     6   ar
    36    33    34   ar
    37    34    35   ar
    38    35    31   ar
    39     6     1   ar
    40    18    12   ar
    41    25    20    1
    42    37    40    1
    43     7    10    1
@<TRIPOS>MOLECULE
*****
 40 43 0 0 0
SMALL
GASTEIGER

@<TRIPOS>ATOM
      1 C         138.8192  142.3960  159.3251 C.ar    1  UNL1        0.0807
      2 C         139.4869  141.0686  159.5302 C.ar    1  UNL1        0.0194
      3 C         139.5178  140.4476  160.8952 C.ar    1  UNL1        0.0375
      4 C         138.8809  141.1540  162.0551 C.ar    1  UNL1        0.1559
      5 N         138.2132  142.4814  161.8500 N.ar    1  UNL1       -0.1331
      6 N         138.1823  143.1024  160.4850 N.ar    1  UNL1       -0.1512
      7 N         138.9118  140.5329  163.4202 N.am    1  UNL1       -0.2676
      8 C         138.5070  139.1000  163.6016 C.2     1  UNL1        0.2332
      9 O         138.0713  138.2881  162.4179 O.2     1  UNL1       -0.2743
     10 H         139.1978  141.0657  164.1971 H       1  UNL1        0.1563
     11 C         138.5379  138.4789  164.9666 C.3     1  UNL1        0.1311
     12 C         139.4727  139.0114  166.0119 C.ar    1  UNL1        0.0708
     13 C         140.9474  139.0634  165.7428 C.ar    1  UNL1        0.0521
     14 C         141.8822  139.5959  166.7881 C.ar    1  UNL1        0.1407
     15 C         141.3422  140.0764  168.1025 C.ar    1  UNL1        0.0516
     16 C         139.8675  140.0243  168.3716 C.ar    1  UNL1        0.0620
     17 C         139.3275  140.5048  169.6859 C.3     1  UNL1        0.0522
     18 N         138.9327  139.4918  167.3262 N.ar    1  UNL1       -0.2533
     19 O         143.3569  139.6480  166.5190 O.3     1  UNL1       -0.4787
     20 C         143.8571  139.8706  165.1225 C.3     1  UNL1        0.1768
     21 C         144.6253  140.9581  164.4318 C.3     1  UNL1        0.1103
     22 C         144.5645  140.1854  163.1476 C.3     1  UNL1        0.2709
     23 F         144.5037  139.4129  161.8633 F       1  UNL1       -0.2041
     24 F         145.3327  141.2731  162.4569 F       1  UNL1       -0.2041
     25 C         143.7963  139.0979  163.8383 C.3     1  UNL1        0.1103
     26 C         138.7883  143.0171  157.9600 C.3     1  UNL1        0.0505
     27 C         140.0293  143.6375  157.3900 C.3     1  UNL1        0.0437
     28 C         140.3129  145.0928  157.6178 C.3     1  UNL1        0.1856
     29 F         139.6588  146.1288  156.7524 F       1  UNL1       -0.2351
     30 C         141.2506  145.5120  158.7109 C.3     1  UNL1        0.1643
     31 C         140.6984  144.8602  162.4971 C.ar    1  UNL1        0.1762
     32 C         141.4633  144.6344  161.2267 C.ar    1  UNL1        0.1223
     33 N         140.8116  145.4418  160.1435 N.ar    1  UNL1       -0.2272
     34 N         139.6440  146.1667  160.7443 N.ar    1  UNL1       -0.0636
     35 N         139.5739  145.8073  162.1989 N.ar    1  UNL1       -0.1241
     36 C         140.2012  143.0675  166.0026 C.3     1  UNL1        0.1110
     37 N         139.8954  143.6809  164.6684 N.am    1  UNL1       -0.2978
     38 C         141.0041  144.2468  163.8313 C.2     1  UNL1        0.2670
     39 O         142.4184  144.1992  164.3285 O.2     1  UNL1       -0.2684
     40 H         138.9671  143.7121  164.3421 H       1  UNL1        0.1498
@<TRIPOS>BOND
     1    36    37    1
     2    37    38   am
     3    38    39    2
     4    38    31    1
     5    31    32   ar
     6    32    33   ar
     7    33    30    1
     8    30    28    1
     9    28    29    1
    10    28    27    1
    11    27    26    1
    12    26     1    1
    13     1     2   ar
    14     2     3   ar
    15     3     4   ar
    16     4     7    1
    17     7     8   am
    18     8     9    2
    19     8    11    1
    20    11    12    1
    21    12    13   ar
    22    13    14   ar
    23    14    19    1
    24    19    20    1
    25    20    21    1
    26    21    22    1
    27    22    23    1
    28    22    24    1
    29    22    25    1
    30    14    15   ar
    31    15    16   ar
    32    16    17    1
    33    16    18   ar
    34     4     5   ar
    35     5     6   ar
    36    33    34   ar
    37    34    35   ar
    38    35    31   ar
    39     6     1   ar
    40    18    12   ar
    41    25    20    1
    42    37    40    1
    43     7    10    1
@<TRIPOS>MOLECULE
*****
 40 43 0 0 0
SMALL
GASTEIGER

@<TRIPOS>ATOM
      1 C         142.5119  140.1499  166.2436 C.ar    1  UNL1        0.0807
      2 C         142.2907  141.6034  165.9467 C.ar    1  UNL1        0.0194
      3 C         142.2464  142.0801  164.5252 C.ar    1  UNL1        0.0375
      4 C         142.4233  141.1033  163.4006 C.ar    1  UNL1        0.1559
      5 N         142.6446  139.6498  163.6976 N.ar    1  UNL1       -0.1331
      6 N         142.6889  139.1731  165.1191 N.ar    1  UNL1       -0.1512
      7 N         142.3790  141.5801  161.9791 N.am    1  UNL1       -0.2676
      8 C         143.5044  142.4056  161.4295 C.2     1  UNL1        0.2332
      9 O         144.6741  142.7544  162.3014 O.2     1  UNL1       -0.2743
     10 H         141.6113  141.3513  161.4068 H       1  UNL1        0.1563
     11 C         143.4601  142.8824  160.0079 C.3     1  UNL1        0.1311
     12 C         142.4243  143.8810  159.5837 C.ar    1  UNL1        0.0708
     13 C         141.4591  144.4340  160.5901 C.ar    1  UNL1        0.0521
     14 C         140.4233  145.4325  160.1659 C.ar    1  UNL1        0.1407
     15 C         140.3527  145.8782  158.7353 C.ar    1  UNL1        0.0516
     16 C         141.3178  145.3252  157.7290 C.ar    1  UNL1        0.0620
     17 C         141.2472  145.7708  156.2984 C.3     1  UNL1        0.0522
     18 N         142.3536  144.3266  158.1532 N.ar    1  UNL1       -0.2533
     19 O         139.4582  145.9855  161.1722 O.3     1  UNL1       -0.4787
     20 C         139.2060  145.2478  162.4536 C.3     1  UNL1        0.1768
     21 C         138.0993  144.3824  162.9792 C.3     1  UNL1        0.1103
     22 C         138.8494  144.2046  164.2659 C.3     1  UNL1        0.2709
     23 F         139.5994  144.0267  165.5527 F       1  UNL1       -0.2041
     24 F         137.7427  143.3391  164.7914 F       1  UNL1       -0.2041
     25 C         139.9561  145.0700  163.7404 C.3     1  UNL1        0.1103
     26 C         142.5562  139.6730  167.6652 C.3     1  UNL1        0.0505
     27 C         141.2949  139.6089  168.4744 C.3     1  UNL1        0.0437
     28 C         140.0563  140.3022  167.9891 C.3     1  UNL1        0.1856
     29 F         139.9226  141.7890  168.1360 F       1  UNL1       -0.2351
     30 C         138.9516  139.5087  167.3568 C.3     1  UNL1        0.1643
     31 C         139.1366  139.0200  163.5107 C.ar    1  UNL1        0.1762
     32 C         138.9252  139.8934  164.7118 C.ar    1  UNL1        0.1223
     33 N         139.0809  139.0423  165.9371 N.ar    1  UNL1       -0.2272
     34 N         139.3886  137.6429  165.4933 N.ar    1  UNL1       -0.0636
     35 N         139.4230  137.6291  163.9938 N.ar    1  UNL1       -0.1241
     36 C         137.7089  140.3681  160.0620 C.3     1  UNL1        0.1110
     37 N         137.7727  139.9279  161.4945 N.am    1  UNL1       -0.2978
     38 C         139.0729  139.4603  162.0782 C.2     1  UNL1        0.2670
     39 O         140.3093  139.4329  161.2295 O.2     1  UNL1       -0.2684
     40 H         136.9611  139.9459  162.0515 H       1  UNL1        0.1498
@<TRIPOS>BOND
     1    36    37    1
     2    37    38   am
     3    38    39    2
     4    38    31    1
     5    31    32   ar
     6    32    33   ar
     7    33    30    1
     8    30    28    1
     9    28    29    1
    10    28    27    1
    11    27    26    1
    12    26     1    1
    13     1     2   ar
    14     2     3   ar
    15     3     4   ar
    16     4     7    1
    17     7     8   am
    18     8     9    2
    19     8    11    1
    20    11    12    1
    21    12    13   ar
    22    13    14   ar
    23    14    19    1
    24    19    20    1
    25    20    21    1
    26    21    22    1
    27    22    23    1
    28    22    24    1
    29    22    25    1
    30    14    15   ar
    31    15    16   ar
    32    16    17    1
    33    16    18   ar
    34     4     5   ar
    35     5     6   ar
    36    33    34   ar
    37    34    35   ar
    38    35    31   ar
    39     6     1   ar
    40    18    12   ar
    41    25    20    1
    42    37    40    1
    43     7    10    1
@<TRIPOS>MOLECULE
*****
 40 43 0 0 0
SMALL
GASTEIGER

@<TRIPOS>ATOM
      1 C         141.2591  145.3849  158.4341 C.ar    1  UNL1        0.0807
      2 C         140.3390  145.5785  159.6028 C.ar    1  UNL1        0.0194
      3 C         140.6531  144.9324  160.9196 C.ar    1  UNL1        0.0375
      4 C         141.8872  144.0927  161.0676 C.ar    1  UNL1        0.1559
      5 N         142.8073  143.8992  159.8989 N.ar    1  UNL1       -0.1331
      6 N         142.4932  144.5453  158.5821 N.ar    1  UNL1       -0.1512
      7 N         142.2013  143.4466  162.3845 N.am    1  UNL1       -0.2676
      8 C         143.3369  143.9594  163.2195 C.2     1  UNL1        0.2332
      9 O         144.1585  145.1182  162.7379 O.2     1  UNL1       -0.2743
     10 H         141.6620  142.6861  162.7006 H       1  UNL1        0.1563
     11 C         143.6509  143.3133  164.5364 C.3     1  UNL1        0.1311
     12 C         143.5715  141.8221  164.6781 C.ar    1  UNL1        0.0708
     13 C         143.3929  141.2060  166.0340 C.ar    1  UNL1        0.0521
     14 C         143.3135  139.7149  166.1756 C.ar    1  UNL1        0.1407
     15 C         143.4126  138.8397  164.9613 C.ar    1  UNL1        0.0516
     16 C         143.5911  139.4559  163.6054 C.ar    1  UNL1        0.0620
     17 C         143.6902  138.5809  162.3912 C.3     1  UNL1        0.0522
     18 N         143.6706  140.9471  163.4638 N.ar    1  UNL1       -0.2533
     19 O         143.1350  139.0987  167.5315 O.3     1  UNL1       -0.4787
     20 C         142.0348  139.5753  168.4329 C.3     1  UNL1        0.1768
     21 C         141.9051  139.8286  169.9057 C.3     1  UNL1        0.1103
     22 C         140.4790  140.2493  169.7077 C.3     1  UNL1        0.2709
     23 F         139.0529  140.6700  169.5099 F       1  UNL1       -0.2041
     24 F         140.3493  140.5026  171.1805 F       1  UNL1       -0.2041
     25 C         140.6087  139.9960  168.2350 C.3     1  UNL1        0.1103
     26 C         140.9451  146.0310  157.1173 C.3     1  UNL1        0.0505
     27 C         139.5560  146.5215  156.8349 C.3     1  UNL1        0.0437
     28 C         139.1317  146.8009  155.4234 C.3     1  UNL1        0.1856
     29 F         137.7879  146.3424  154.9396 F       1  UNL1       -0.2351
     30 C         140.0511  147.5388  154.4960 C.3     1  UNL1        0.1643
     31 C         139.0462  151.2697  154.1274 C.ar    1  UNL1        0.1762
     32 C         139.2538  150.0459  154.9694 C.ar    1  UNL1        0.1223
     33 N         139.7223  148.9394  154.0715 N.ar    1  UNL1       -0.2272
     34 N         139.8042  149.4794  152.6745 N.ar    1  UNL1       -0.0636
     35 N         139.3864  150.9196  152.7090 N.ar    1  UNL1       -0.1241
     36 C         137.3741  154.8685  154.1836 C.3     1  UNL1        0.1110
     37 N         137.8400  153.5296  153.6934 N.am    1  UNL1       -0.2978
     38 C         138.5802  152.6086  154.6175 C.2     1  UNL1        0.2670
     39 O         138.8544  153.0265  156.0318 O.2     1  UNL1       -0.2684
     40 H         137.6601  153.2553  152.7652 H       1  UNL1        0.1498
@<TRIPOS>BOND
     1    36    37    1
     2    37    38   am
     3    38    39    2
     4    38    31    1
     5    31    32   ar
     6    32    33   ar
     7    33    30    1
     8    30    28    1
     9    28    29    1
    10    28    27    1
    11    27    26    1
    12    26     1    1
    13     1     2   ar
    14     2     3   ar
    15     3     4   ar
    16     4     7    1
    17     7     8   am
    18     8     9    2
    19     8    11    1
    20    11    12    1
    21    12    13   ar
    22    13    14   ar
    23    14    19    1
    24    19    20    1
    25    20    21    1
    26    21    22    1
    27    22    23    1
    28    22    24    1
    29    22    25    1
    30    14    15   ar
    31    15    16   ar
    32    16    17    1
    33    16    18   ar
    34     4     5   ar
    35     5     6   ar
    36    33    34   ar
    37    34    35   ar
    38    35    31   ar
    39     6     1   ar
    40    18    12   ar
    41    25    20    1
    42    37    40    1
    43     7    10    1
@<TRIPOS>MOLECULE
*****
 40 43 0 0 0
SMALL
GASTEIGER

@<TRIPOS>ATOM
      1 C         142.7461  139.9891  158.6574 C.ar    1  UNL1        0.0807
      2 C         141.5479  140.0562  159.5573 C.ar    1  UNL1        0.0194
      3 C         141.6238  139.5032  160.9496 C.ar    1  UNL1        0.0375
      4 C         142.8977  138.8831  161.4419 C.ar    1  UNL1        0.1559
      5 N         144.0959  138.8159  160.5420 N.ar    1  UNL1       -0.1331
      6 N         144.0201  139.3689  159.1498 N.ar    1  UNL1       -0.1512
      7 N         142.9735  138.3300  162.8342 N.am    1  UNL1       -0.2676
      8 C         143.5734  139.1521  163.9362 C.2     1  UNL1        0.2332
      9 O         144.0975  140.5273  163.6458 O.2     1  UNL1       -0.2743
     10 H         142.6295  137.4275  163.0248 H       1  UNL1        0.1563
     11 C         143.6491  138.5991  165.3285 C.3     1  UNL1        0.1311
     12 C         142.6791  139.0639  166.3739 C.ar    1  UNL1        0.0708
     13 C         141.2617  139.3767  165.9957 C.ar    1  UNL1        0.0521
     14 C         140.2916  139.8414  167.0411 C.ar    1  UNL1        0.1407
     15 C         140.7389  139.9934  168.4648 C.ar    1  UNL1        0.0516
     16 C         142.1564  139.6806  168.8430 C.ar    1  UNL1        0.0620
     17 C         142.6037  139.8325  170.2666 C.3     1  UNL1        0.0522
     18 N         143.1264  139.2158  167.7975 N.ar    1  UNL1       -0.2533
     19 O         138.8742  140.1543  166.6629 O.3     1  UNL1       -0.4787
     20 C         138.4930  140.2756  165.2173 C.3     1  UNL1        0.1768
     21 C         138.3312  139.3126  164.0786 C.3     1  UNL1        0.1103
     22 C         137.9539  140.4471  163.1728 C.3     1  UNL1        0.2709
     23 F         137.5765  141.5815  162.2669 F       1  UNL1       -0.2041
     24 F         137.7921  139.4841  162.0341 F       1  UNL1       -0.2041
     25 C         138.1156  141.4101  164.3114 C.3     1  UNL1        0.1103
     26 C         142.6703  140.5421  157.2651 C.3     1  UNL1        0.0505
     27 C         143.2649  141.8845  156.9579 C.3     1  UNL1        0.0437
     28 C         142.3707  143.0699  156.7449 C.3     1  UNL1        0.1856
     29 F         142.8803  144.2701  156.0034 F       1  UNL1       -0.2351
     30 C         140.9670  143.0551  157.2734 C.3     1  UNL1        0.1643
     31 C         140.9853  144.2474  160.9670 C.ar    1  UNL1        0.1762
     32 C         141.7066  143.7810  159.7373 C.ar    1  UNL1        0.1223
     33 N         140.6853  143.5325  158.6671 N.ar    1  UNL1       -0.2272
     34 N         139.3329  143.8454  159.2354 N.ar    1  UNL1       -0.0636
     35 N         139.5182  144.2873  160.6568 N.ar    1  UNL1       -0.1241
     36 C         143.7300  145.2311  163.6595 C.3     1  UNL1        0.1110
     37 N         143.0956  144.8682  162.3496 N.am    1  UNL1       -0.2978
     38 C         141.6197  144.6103  162.2769 C.2     1  UNL1        0.2670
     39 O         140.7783  144.7154  163.5142 O.2     1  UNL1       -0.2684
     40 H         143.6479  144.7992  161.5375 H       1  UNL1        0.1498
@<TRIPOS>BOND
     1    36    37    1
     2    37    38   am
     3    38    39    2
     4    38    31    1
     5    31    32   ar
     6    32    33   ar
     7    33    30    1
     8    30    28    1
     9    28    29    1
    10    28    27    1
    11    27    26    1
    12    26     1    1
    13     1     2   ar
    14     2     3   ar
    15     3     4   ar
    16     4     7    1
    17     7     8   am
    18     8     9    2
    19     8    11    1
    20    11    12    1
    21    12    13   ar
    22    13    14   ar
    23    14    19    1
    24    19    20    1
    25    20    21    1
    26    21    22    1
    27    22    23    1
    28    22    24    1
    29    22    25    1
    30    14    15   ar
    31    15    16   ar
    32    16    17    1
    33    16    18   ar
    34     4     5   ar
    35     5     6   ar
    36    33    34   ar
    37    34    35   ar
    38    35    31   ar
    39     6     1   ar
    40    18    12   ar
    41    25    20    1
    42    37    40    1
    43     7    10    1
@<TRIPOS>MOLECULE
*****
 40 43 0 0 0
SMALL
GASTEIGER

@<TRIPOS>ATOM
      1 C         138.1760  140.1224  156.7158 C.ar    1  UNL1        0.0807
      2 C         138.1795  140.9471  157.9687 C.ar    1  UNL1        0.0194
      3 C         138.8245  140.4159  159.2144 C.ar    1  UNL1        0.0375
      4 C         139.4661  139.0601  159.2072 C.ar    1  UNL1        0.1559
      5 N         139.4626  138.2354  157.9543 N.ar    1  UNL1       -0.1331
      6 N         138.8176  138.7665  156.7086 N.ar    1  UNL1       -0.1512
      7 N         140.1112  138.5290  160.4529 N.am    1  UNL1       -0.2676
      8 C         139.2658  138.1540  161.6339 C.2     1  UNL1        0.2332
      9 O         137.7753  138.3101  161.5691 O.2     1  UNL1       -0.2743
     10 H         141.0894  138.4265  160.4954 H       1  UNL1        0.1563
     11 C         139.9108  137.6228  162.8797 C.3     1  UNL1        0.1311
     12 C         140.8134  138.5042  163.6912 C.ar    1  UNL1        0.0708
     13 C         140.7207  139.9956  163.5607 C.ar    1  UNL1        0.0521
     14 C         141.6232  140.8770  164.3722 C.ar    1  UNL1        0.1407
     15 C         142.6185  140.2669  165.3142 C.ar    1  UNL1        0.0516
     16 C         142.7112  138.7755  165.4447 C.ar    1  UNL1        0.0620
     17 C         143.7064  138.1654  166.3866 C.3     1  UNL1        0.0522
     18 N         141.8086  137.8941  164.6331 N.ar    1  UNL1       -0.2533
     19 O         141.5306  142.3684  164.2418 O.3     1  UNL1       -0.4787
     20 C         140.1889  143.0391  164.2393 C.3     1  UNL1        0.1768
     21 C         139.3233  143.6836  165.2811 C.3     1  UNL1        0.1103
     22 C         138.2915  143.9877  164.2357 C.3     1  UNL1        0.2709
     23 F         137.2596  144.2918  163.1905 F       1  UNL1       -0.2041
     24 F         137.4259  144.6321  165.2777 F       1  UNL1       -0.2041
     25 C         139.1571  143.3432  163.1939 C.3     1  UNL1        0.1103
     26 C         137.5309  140.6535  155.4700 C.3     1  UNL1        0.0505
     27 C         136.2519  141.4317  155.5611 C.3     1  UNL1        0.0437
     28 C         135.0151  140.9241  154.8808 C.3     1  UNL1        0.1856
     29 F         135.1298  140.1072  153.6279 F       1  UNL1       -0.2351
     30 C         133.6636  141.2333  155.4533 C.3     1  UNL1        0.1643
     31 C         131.3440  139.0126  157.6335 C.ar    1  UNL1        0.1762
     32 C         131.5416  140.0566  156.5747 C.ar    1  UNL1        0.1223
     33 N         133.0163  140.2745  156.4081 N.ar    1  UNL1       -0.2272
     34 N         133.7302  139.3652  157.3639 N.ar    1  UNL1       -0.0636
     35 N         132.6966  138.5853  158.1213 N.ar    1  UNL1       -0.1241
     36 C         128.0052  138.6390  159.7460 C.3     1  UNL1        0.1110
     37 N         129.3238  139.1635  159.2602 N.am    1  UNL1       -0.2978
     38 C         130.0253  138.4881  158.1193 C.2     1  UNL1        0.2670
     39 O         129.4082  137.2881  157.4642 O.2     1  UNL1       -0.2684
     40 H         129.7288  139.9511  159.6902 H       1  UNL1        0.1498
@<TRIPOS>BOND
     1    36    37    1
     2    37    38   am
     3    38    39    2
     4    38    31    1
     5    31    32   ar
     6    32    33   ar
     7    33    30    1
     8    30    28    1
     9    28    29    1
    10    28    27    1
    11    27    26    1
    12    26     1    1
    13     1     2   ar
    14     2     3   ar
    15     3     4   ar
    16     4     7    1
    17     7     8   am
    18     8     9    2
    19     8    11    1
    20    11    12    1
    21    12    13   ar
    22    13    14   ar
    23    14    19    1
    24    19    20    1
    25    20    21    1
    26    21    22    1
    27    22    23    1
    28    22    24    1
    29    22    25    1
    30    14    15   ar
    31    15    16   ar
    32    16    17    1
    33    16    18   ar
    34     4     5   ar
    35     5     6   ar
    36    33    34   ar
    37    34    35   ar
    38    35    31   ar
    39     6     1   ar
    40    18    12   ar
    41    25    20    1
    42    37    40    1
    43     7    10    1
