@<TRIPOS>MOLECULE
*****
 27 30 0 0 0
SMALL
GASTEIGER

@<TRIPOS>ATOM
      1 N         138.9441  138.4951  162.6683 N.3     1  UNL1       -0.2619
      2 C         139.5511  138.0808  161.3606 C.3     1  UNL1        0.1239
      3 C         139.2234  138.8383  160.1081 C.3     1  UNL1        0.2195
      4 N         138.2886  140.0102  160.1633 N.pl3   1  UNL1       -0.1896
      5 C         137.6817  140.4245  161.4709 C.3     1  UNL1        0.2195
      6 C         138.0094  139.6669  162.7234 C.3     1  UNL1        0.1239
      7 C         137.9609  140.7677  158.9108 C.2     1  UNL1        0.3259
      8 N         136.7980  140.3466  158.0621 N.2     1  UNL1        0.0588
      9 N         136.4703  141.1041  156.8097 N.ar    1  UNL1       -0.0990
     10 C         137.3055  142.2828  156.4058 C.ar    1  UNL1        0.1866
     11 N         136.7451  142.8317  155.1273 N.ar    1  UNL1       -0.1295
     12 N         135.5636  141.9923  154.7409 N.ar    1  UNL1       -0.1211
     13 C         135.3938  140.9246  155.7807 C.ar    1  UNL1        0.2792
     14 C         138.4684  142.7040  157.2545 C.3     1  UNL1        0.0825
     15 C         138.7961  141.9464  158.5069 C.3     1  UNL1        0.1277
     16 C         134.3335  139.8636  155.7899 C.3     1  UNL1        0.4561
     17 F         133.2731  138.8026  155.7992 F       1  UNL1       -0.1631
     18 F         133.6301  140.5761  156.9068 F       1  UNL1       -0.1631
     19 F         135.0368  139.1510  154.6730 F       1  UNL1       -0.1631
     20 C         139.2719  137.7375  163.9207 C.3     1  UNL1        0.0994
     21 F         139.2289  140.5453  169.2230 F       1  UNL1       -0.2042
     22 C         139.2396  139.8434  167.8974 C.ar    1  UNL1        0.1401
     23 C         140.4284  139.9698  166.9915 C.ar    1  UNL1        0.0294
     24 C         140.4392  139.2678  165.6659 C.ar    1  UNL1       -0.0006
     25 C         139.2611  138.4395  165.2463 C.ar    1  UNL1       -0.0060
     26 C         138.0723  138.3131  166.1523 C.ar    1  UNL1       -0.0006
     27 C         138.0616  139.0150  167.4778 C.ar    1  UNL1        0.0294
@<TRIPOS>BOND
     1    21    22    1
     2    22    23   ar
     3    23    24   ar
     4    24    25   ar
     5    25    20    1
     6    20     1    1
     7     1     2    1
     8     2     3    1
     9     3     4    1
    10     4     7    1
    11     7     8    2
    12     8     9    1
    13     9    10   ar
    14    10    11   ar
    15    11    12   ar
    16    12    13   ar
    17    13    16    1
    18    16    17    1
    19    16    18    1
    20    16    19    1
    21    10    14    1
    22    14    15    1
    23     4     5    1
    24     5     6    1
    25    25    26   ar
    26    26    27   ar
    27    27    22   ar
    28     6     1    1
    29    15     7    1
    30    13     9   ar
@<TRIPOS>MOLECULE
*****
 27 30 0 0 0
SMALL
GASTEIGER

@<TRIPOS>ATOM
      1 N         140.9381  138.4404  163.5001 N.3     1  UNL1       -0.2619
      2 C         142.0575  138.3209  164.4914 C.3     1  UNL1        0.1239
      3 C         141.8958  138.8755  165.8757 C.3     1  UNL1        0.2195
      4 N         140.6147  139.5496  166.2687 N.pl3   1  UNL1       -0.1896
      5 C         139.4953  139.6691  165.2774 C.3     1  UNL1        0.2195
      6 C         139.6570  139.1145  163.8930 C.3     1  UNL1        0.1239
      7 C         140.4530  140.1042  167.6530 C.2     1  UNL1        0.3259
      8 N         141.5958  140.8164  168.3138 N.2     1  UNL1        0.0588
      9 N         141.4341  141.3709  169.6981 N.ar    1  UNL1       -0.0990
     10 C         140.1296  141.2133  170.4216 C.ar    1  UNL1        0.1866
     11 N         140.2652  141.8602  171.7681 N.ar    1  UNL1       -0.1295
     12 N         141.6535  142.4176  171.8769 N.ar    1  UNL1       -0.1211
     13 C         142.3759  142.1152  170.5976 C.ar    1  UNL1        0.2792
     14 C         138.9868  140.5011  169.7607 C.3     1  UNL1        0.0825
     15 C         139.1485  139.9466  168.3765 C.3     1  UNL1        0.1277
     16 C         143.7917  142.4911  170.2744 C.3     1  UNL1        0.4561
     17 F         145.2074  142.8671  169.9512 F       1  UNL1       -0.1631
     18 F         143.5311  143.8873  170.7568 F       1  UNL1       -0.1631
     19 F         144.0523  141.0950  169.7920 F       1  UNL1       -0.1631
     20 C         141.0998  137.8858  162.1158 C.3     1  UNL1        0.0994
     21 F         143.5983  141.2394  157.8135 F       1  UNL1       -0.2042
     22 C         142.9737  140.4010  158.8890 C.ar    1  UNL1        0.1401
     23 C         143.8341  139.7730  159.9451 C.ar    1  UNL1        0.0294
     24 C         143.2095  138.9346  161.0207 C.ar    1  UNL1       -0.0006
     25 C         141.7244  138.7242  161.0402 C.ar    1  UNL1       -0.0060
     26 C         140.8640  139.3522  159.9841 C.ar    1  UNL1       -0.0006
     27 C         141.4886  140.1906  158.9086 C.ar    1  UNL1        0.0294
@<TRIPOS>BOND
     1    21    22    1
     2    22    23   ar
     3    23    24   ar
     4    24    25   ar
     5    25    20    1
     6    20     1    1
     7     1     2    1
     8     2     3    1
     9     3     4    1
    10     4     7    1
    11     7     8    2
    12     8     9    1
    13     9    10   ar
    14    10    11   ar
    15    11    12   ar
    16    12    13   ar
    17    13    16    1
    18    16    17    1
    19    16    18    1
    20    16    19    1
    21    10    14    1
    22    14    15    1
    23     4     5    1
    24     5     6    1
    25    25    26   ar
    26    26    27   ar
    27    27    22   ar
    28     6     1    1
    29    15     7    1
    30    13     9   ar
@<TRIPOS>MOLECULE
*****
 27 30 0 0 0
SMALL
GASTEIGER

@<TRIPOS>ATOM
      1 N         140.8706  144.3996  162.4489 N.3     1  UNL1       -0.2619
      2 C         142.0849  144.6369  163.2970 C.3     1  UNL1        0.1239
      3 C         142.4300  143.6782  164.3977 C.3     1  UNL1        0.2195
      4 N         141.5608  142.4821  164.6505 N.pl3   1  UNL1       -0.1896
      5 C         140.3465  142.2448  163.8025 C.3     1  UNL1        0.2195
      6 C         140.0013  143.2035  162.7016 C.3     1  UNL1        0.1239
      7 C         141.9059  141.5234  165.7513 C.2     1  UNL1        0.3259
      8 N         142.2960  142.0428  167.1033 N.2     1  UNL1        0.0588
      9 N         142.6411  141.0840  168.2041 N.ar    1  UNL1       -0.0990
     10 C         142.5961  139.6059  167.9528 C.ar    1  UNL1        0.1866
     11 N         142.9859  138.9079  169.2220 N.ar    1  UNL1       -0.1295
     12 N         143.2718  139.9546  170.2577 N.ar    1  UNL1       -0.1211
     13 C         143.0587  141.2995  169.6286 C.ar    1  UNL1        0.2792
     14 C         142.2060  139.0865  166.6008 C.3     1  UNL1        0.0825
     15 C         141.8609  140.0453  165.5000 C.3     1  UNL1        0.1277
     16 C         143.2327  142.6269  170.3051 C.3     1  UNL1        0.4561
     17 F         143.4066  143.9543  170.9817 F       1  UNL1       -0.1631
     18 F         141.7809  142.6248  170.6826 F       1  UNL1       -0.1631
     19 F         144.6844  142.6290  169.9278 F       1  UNL1       -0.1631
     20 C         140.5255  145.3583  161.3481 C.3     1  UNL1        0.0994
     21 F         142.5632  144.3999  155.7868 F       1  UNL1       -0.2042
     22 C         142.0538  144.6395  157.1771 C.ar    1  UNL1        0.1401
     23 C         140.9685  145.6472  157.4149 C.ar    1  UNL1        0.0294
     24 C         140.4590  145.8868  158.8053 C.ar    1  UNL1       -0.0006
     25 C         141.0349  145.1187  159.9578 C.ar    1  UNL1       -0.0060
     26 C         142.1203  144.1110  159.7200 C.ar    1  UNL1       -0.0006
     27 C         142.6297  143.8714  158.3297 C.ar    1  UNL1        0.0294
@<TRIPOS>BOND
     1    21    22    1
     2    22    23   ar
     3    23    24   ar
     4    24    25   ar
     5    25    20    1
     6    20     1    1
     7     1     2    1
     8     2     3    1
     9     3     4    1
    10     4     7    1
    11     7     8    2
    12     8     9    1
    13     9    10   ar
    14    10    11   ar
    15    11    12   ar
    16    12    13   ar
    17    13    16    1
    18    16    17    1
    19    16    18    1
    20    16    19    1
    21    10    14    1
    22    14    15    1
    23     4     5    1
    24     5     6    1
    25    25    26   ar
    26    26    27   ar
    27    27    22   ar
    28     6     1    1
    29    15     7    1
    30    13     9   ar
@<TRIPOS>MOLECULE
*****
 27 30 0 0 0
SMALL
GASTEIGER

@<TRIPOS>ATOM
      1 N         141.0182  139.3262  163.0570 N.3     1  UNL1       -0.2619
      2 C         140.4182  138.3214  163.9954 C.3     1  UNL1        0.1239
      3 C         140.2491  138.6585  165.4472 C.3     1  UNL1        0.2195
      4 N         140.6799  140.0004  165.9607 N.pl3   1  UNL1       -0.1896
      5 C         141.2799  141.0052  165.0224 C.3     1  UNL1        0.2195
      6 C         141.4491  140.6681  163.5705 C.3     1  UNL1        0.1239
      7 C         140.5108  140.3376  167.4125 C.2     1  UNL1        0.3259
      8 N         141.6146  141.0304  168.1551 N.2     1  UNL1        0.0588
      9 N         141.4455  141.3675  169.6069 N.ar    1  UNL1       -0.0990
     10 C         140.1725  141.0117  170.3161 C.ar    1  UNL1        0.1866
     11 N         140.2924  141.4673  171.7402 N.ar    1  UNL1       -0.1295
     12 N         141.6394  142.1047  171.9112 N.ar    1  UNL1       -0.1211
     13 C         142.3520  142.0430  170.5927 C.ar    1  UNL1        0.2792
     14 C         139.0687  140.3189  169.5735 C.3     1  UNL1        0.0825
     15 C         139.2378  139.9818  168.1217 C.3     1  UNL1        0.1277
     16 C         143.7295  142.5651  170.3098 C.3     1  UNL1        0.4561
     17 F         145.1070  143.0871  170.0267 F       1  UNL1       -0.1631
     18 F         144.1384  141.2129  169.8053 F       1  UNL1       -0.1631
     19 F         143.3207  143.9172  170.8141 F       1  UNL1       -0.1631
     20 C         141.1873  138.9890  161.6053 C.3     1  UNL1        0.0994
     21 F         137.1846  140.9437  157.5857 F       1  UNL1       -0.2042
     22 C         138.1852  140.4551  158.5906 C.ar    1  UNL1        0.1401
     23 C         139.6449  140.4329  158.2457 C.ar    1  UNL1        0.0294
     24 C         140.6456  139.9442  159.2507 C.ar    1  UNL1       -0.0006
     25 C         140.1866  139.4777  160.6004 C.ar    1  UNL1       -0.0060
     26 C         138.7269  139.4999  160.9452 C.ar    1  UNL1       -0.0006
     27 C         137.7263  139.9886  159.9403 C.ar    1  UNL1        0.0294
@<TRIPOS>BOND
     1    21    22    1
     2    22    23   ar
     3    23    24   ar
     4    24    25   ar
     5    25    20    1
     6    20     1    1
     7     1     2    1
     8     2     3    1
     9     3     4    1
    10     4     7    1
    11     7     8    2
    12     8     9    1
    13     9    10   ar
    14    10    11   ar
    15    11    12   ar
    16    12    13   ar
    17    13    16    1
    18    16    17    1
    19    16    18    1
    20    16    19    1
    21    10    14    1
    22    14    15    1
    23     4     5    1
    24     5     6    1
    25    25    26   ar
    26    26    27   ar
    27    27    22   ar
    28     6     1    1
    29    15     7    1
    30    13     9   ar
@<TRIPOS>MOLECULE
*****
 27 30 0 0 0
SMALL
GASTEIGER

@<TRIPOS>ATOM
      1 N         142.3512  142.0870  162.0288 N.3     1  UNL1       -0.2619
      2 C         141.2360  141.0883  162.1233 C.3     1  UNL1        0.1239
      3 C         140.6677  140.7230  163.4625 C.3     1  UNL1        0.2195
      4 N         141.2147  141.3564  164.7074 N.pl3   1  UNL1       -0.1896
      5 C         142.3298  142.3551  164.6130 C.3     1  UNL1        0.2195
      6 C         142.8982  142.7204  163.2737 C.3     1  UNL1        0.1239
      7 C         140.6464  140.9911  166.0467 C.2     1  UNL1        0.3259
      8 N         141.1886  141.6296  167.2910 N.2     1  UNL1        0.0588
      9 N         140.6203  141.2642  168.6302 N.ar    1  UNL1       -0.0990
     10 C         139.5098  140.2604  168.7251 C.ar    1  UNL1        0.1866
     11 N         139.1523  140.1002  170.1730 N.ar    1  UNL1       -0.1295
     12 N         140.0419  141.0050  170.9730 N.ar    1  UNL1       -0.1211
     13 C         140.9491  141.7244  170.0194 C.ar    1  UNL1        0.2792
     14 C         138.9675  139.6219  167.4808 C.3     1  UNL1        0.0825
     15 C         139.5358  139.9872  166.1416 C.3     1  UNL1        0.1277
     16 C         142.0007  142.7278  170.3901 C.3     1  UNL1        0.4561
     17 F         143.0522  143.7314  170.7607 F       1  UNL1       -0.1631
     18 F         141.0644  143.8426  170.0283 F       1  UNL1       -0.1631
     19 F         142.9369  141.6132  170.7518 F       1  UNL1       -0.1631
     20 C         142.9195  142.4523  160.6896 C.3     1  UNL1        0.0994
     21 F         140.2366  146.6403  157.3336 F       1  UNL1       -0.2042
     22 C         140.9073  145.5933  158.1726 C.ar    1  UNL1        0.1401
     23 C         140.5107  145.4152  159.6082 C.ar    1  UNL1        0.0294
     24 C         141.1814  144.3682  160.4472 C.ar    1  UNL1       -0.0006
     25 C         142.2487  143.4993  159.8506 C.ar    1  UNL1       -0.0060
     26 C         142.6453  143.6775  158.4150 C.ar    1  UNL1       -0.0006
     27 C         141.9746  144.7245  157.5760 C.ar    1  UNL1        0.0294
@<TRIPOS>BOND
     1    21    22    1
     2    22    23   ar
     3    23    24   ar
     4    24    25   ar
     5    25    20    1
     6    20     1    1
     7     1     2    1
     8     2     3    1
     9     3     4    1
    10     4     7    1
    11     7     8    2
    12     8     9    1
    13     9    10   ar
    14    10    11   ar
    15    11    12   ar
    16    12    13   ar
    17    13    16    1
    18    16    17    1
    19    16    18    1
    20    16    19    1
    21    10    14    1
    22    14    15    1
    23     4     5    1
    24     5     6    1
    25    25    26   ar
    26    26    27   ar
    27    27    22   ar
    28     6     1    1
    29    15     7    1
    30    13     9   ar
@<TRIPOS>MOLECULE
*****
 27 30 0 0 0
SMALL
GASTEIGER

@<TRIPOS>ATOM
      1 N         143.3469  138.9962  162.5378 N.3     1  UNL1       -0.2619
      2 C         141.8478  139.0488  162.5478 C.3     1  UNL1        0.1239
      3 C         141.1166  139.3564  163.8208 C.3     1  UNL1        0.2195
      4 N         141.8844  139.6115  165.0839 N.pl3   1  UNL1       -0.1896
      5 C         143.3834  139.5589  165.0740 C.3     1  UNL1        0.2195
      6 C         144.1147  139.2512  163.8009 C.3     1  UNL1        0.1239
      7 C         141.1531  139.9192  166.3570 C.2     1  UNL1        0.3259
      8 N         141.8320  140.7018  167.4416 N.2     1  UNL1        0.0588
      9 N         141.1007  141.0094  168.7146 N.ar    1  UNL1       -0.0990
     10 C         139.6905  140.5344  168.9029 C.ar    1  UNL1        0.1866
     11 N         139.2259  140.9863  170.2557 N.ar    1  UNL1       -0.1295
     12 N         140.3491  141.7406  170.9034 N.ar    1  UNL1       -0.1211
     13 C         141.5078  141.7549  169.9509 C.ar    1  UNL1        0.2792
     14 C         139.0115  139.7518  167.8183 C.3     1  UNL1        0.0825
     15 C         139.7428  139.4441  166.5453 C.3     1  UNL1        0.1277
     16 C         142.8397  142.4012  170.1924 C.3     1  UNL1        0.4561
     17 F         144.1717  143.0474  170.4338 F       1  UNL1       -0.1631
     18 F         143.4998  141.0547  170.1551 F       1  UNL1       -0.1631
     19 F         142.1797  143.7475  170.2297 F       1  UNL1       -0.1631
     20 C         144.0781  138.6885  161.2648 C.3     1  UNL1        0.0994
     21 F         141.4902  139.8178  155.9708 F       1  UNL1       -0.2042
     22 C         142.1372  139.5355  157.2943 C.ar    1  UNL1        0.1401
     23 C         142.1510  138.1381  157.8394 C.ar    1  UNL1        0.0294
     24 C         142.7980  137.8558  159.1630 C.ar    1  UNL1       -0.0006
     25 C         143.4312  138.9708  159.9413 C.ar    1  UNL1       -0.0060
     26 C         143.4173  140.3682  159.3961 C.ar    1  UNL1       -0.0006
     27 C         142.7704  140.6505  158.0726 C.ar    1  UNL1        0.0294
@<TRIPOS>BOND
     1    21    22    1
     2    22    23   ar
     3    23    24   ar
     4    24    25   ar
     5    25    20    1
     6    20     1    1
     7     1     2    1
     8     2     3    1
     9     3     4    1
    10     4     7    1
    11     7     8    2
    12     8     9    1
    13     9    10   ar
    14    10    11   ar
    15    11    12   ar
    16    12    13   ar
    17    13    16    1
    18    16    17    1
    19    16    18    1
    20    16    19    1
    21    10    14    1
    22    14    15    1
    23     4     5    1
    24     5     6    1
    25    25    26   ar
    26    26    27   ar
    27    27    22   ar
    28     6     1    1
    29    15     7    1
    30    13     9   ar
@<TRIPOS>MOLECULE
*****
 27 30 0 0 0
SMALL
GASTEIGER

@<TRIPOS>ATOM
      1 N         139.9458  145.3777  156.1435 N.3     1  UNL1       -0.2619
      2 C         138.9517  144.2687  155.9647 C.3     1  UNL1        0.1239
      3 C         138.5900  143.3912  157.1262 C.3     1  UNL1        0.2195
      4 N         139.2224  143.6227  158.4666 N.pl3   1  UNL1       -0.1896
      5 C         140.2165  144.7316  158.6454 C.3     1  UNL1        0.2195
      6 C         140.5782  145.6092  157.4838 C.3     1  UNL1        0.1239
      7 C         138.8606  142.7452  159.6281 C.2     1  UNL1        0.3259
      8 N         138.8626  143.3045  161.0199 N.2     1  UNL1        0.0588
      9 N         138.5009  142.4270  162.1814 N.ar    1  UNL1       -0.0990
     10 C         138.1372  140.9901  161.9511 C.ar    1  UNL1        0.1866
     11 N         137.8272  140.3714  163.2819 N.ar    1  UNL1       -0.1295
     12 N         137.9994  141.4259  164.3347 N.ar    1  UNL1       -0.1211
     13 C         138.4158  142.6963  163.6545 C.ar    1  UNL1        0.2792
     14 C         138.1351  140.4308  160.5593 C.3     1  UNL1        0.0825
     15 C         138.4969  141.3083  159.3978 C.3     1  UNL1        0.1277
     16 C         138.6976  144.0061  164.3291 C.3     1  UNL1        0.4561
     17 F         138.9795  145.3160  165.0036 F       1  UNL1       -0.1631
     18 F         140.1477  143.8809  163.9664 F       1  UNL1       -0.1631
     19 F         137.2476  144.1314  164.6917 F       1  UNL1       -0.1631
     20 C         140.3075  146.2551  154.9819 C.3     1  UNL1        0.0994
     21 F         138.4241  151.9496  154.8232 F       1  UNL1       -0.2042
     22 C         138.8950  150.5260  154.8629 C.ar    1  UNL1        0.1401
     23 C         138.4411  149.6164  155.9659 C.ar    1  UNL1        0.0294
     24 C         138.9119  148.1928  156.0056 C.ar    1  UNL1       -0.0006
     25 C         139.8367  147.6787  154.9423 C.ar    1  UNL1       -0.0060
     26 C         140.2905  148.5884  153.8392 C.ar    1  UNL1       -0.0006
     27 C         139.8197  150.0120  153.7996 C.ar    1  UNL1        0.0294
@<TRIPOS>BOND
     1    21    22    1
     2    22    23   ar
     3    23    24   ar
     4    24    25   ar
     5    25    20    1
     6    20     1    1
     7     1     2    1
     8     2     3    1
     9     3     4    1
    10     4     7    1
    11     7     8    2
    12     8     9    1
    13     9    10   ar
    14    10    11   ar
    15    11    12   ar
    16    12    13   ar
    17    13    16    1
    18    16    17    1
    19    16    18    1
    20    16    19    1
    21    10    14    1
    22    14    15    1
    23     4     5    1
    24     5     6    1
    25    25    26   ar
    26    26    27   ar
    27    27    22   ar
    28     6     1    1
    29    15     7    1
    30    13     9   ar
@<TRIPOS>MOLECULE
*****
 27 30 0 0 0
SMALL
GASTEIGER

@<TRIPOS>ATOM
      1 N         142.2286  138.0906  159.3951 N.3     1  UNL1       -0.2619
      2 C         140.7994  138.5227  159.5393 C.3     1  UNL1        0.1239
      3 C         140.2005  138.6898  160.9043 C.3     1  UNL1        0.2195
      4 N         141.0307  138.4246  162.1252 N.pl3   1  UNL1       -0.1896
      5 C         142.4598  137.9925  161.9810 C.3     1  UNL1        0.2195
      6 C         143.0588  137.8254  160.6159 C.3     1  UNL1        0.1239
      7 C         140.4317  138.5917  163.4903 C.2     1  UNL1        0.3259
      8 N         141.0679  139.5224  164.4797 N.2     1  UNL1        0.0588
      9 N         140.4689  139.6894  165.8447 N.ar    1  UNL1       -0.0990
     10 C         139.2337  138.9257  166.2203 C.ar    1  UNL1        0.1866
     11 N         138.8724  139.2924  167.6292 N.ar    1  UNL1       -0.1295
     12 N         139.8843  140.2828  168.1244 N.ar    1  UNL1       -0.1211
     13 C         140.8710  140.5281  167.0215 C.ar    1  UNL1        0.2792
     14 C         138.5975  137.9950  165.2308 C.3     1  UNL1        0.0825
     15 C         139.1965  137.8280  163.8658 C.3     1  UNL1        0.1277
     16 C         142.0524  141.4502  167.0843 C.3     1  UNL1        0.4561
     17 F         143.2338  142.3725  167.1472 F       1  UNL1       -0.1631
     18 F         141.1606  142.6143  166.7684 F       1  UNL1       -0.1631
     19 F         142.9441  140.2863  167.4003 F       1  UNL1       -0.1631
     20 C         142.8275  137.9236  158.0300 C.3     1  UNL1        0.0994
     21 F         141.1037  133.3611  154.5355 F       1  UNL1       -0.2042
     22 C         141.5347  134.5017  155.4092 C.ar    1  UNL1        0.1401
     23 C         140.8093  135.8129  155.3427 C.ar    1  UNL1        0.0294
     24 C         141.2403  136.9536  156.2163 C.ar    1  UNL1       -0.0006
     25 C         142.3966  136.7830  157.1564 C.ar    1  UNL1       -0.0060
     26 C         143.1219  135.4716  157.2229 C.ar    1  UNL1       -0.0006
     27 C         142.6910  134.3310  156.3493 C.ar    1  UNL1        0.0294
@<TRIPOS>BOND
     1    21    22    1
     2    22    23   ar
     3    23    24   ar
     4    24    25   ar
     5    25    20    1
     6    20     1    1
     7     1     2    1
     8     2     3    1
     9     3     4    1
    10     4     7    1
    11     7     8    2
    12     8     9    1
    13     9    10   ar
    14    10    11   ar
    15    11    12   ar
    16    12    13   ar
    17    13    16    1
    18    16    17    1
    19    16    18    1
    20    16    19    1
    21    10    14    1
    22    14    15    1
    23     4     5    1
    24     5     6    1
    25    25    26   ar
    26    26    27   ar
    27    27    22   ar
    28     6     1    1
    29    15     7    1
    30    13     9   ar
@<TRIPOS>MOLECULE
*****
 27 30 0 0 0
SMALL
GASTEIGER

@<TRIPOS>ATOM
      1 N         141.9461  136.5442  156.2384 N.3     1  UNL1       -0.2619
      2 C         140.5054  136.8610  155.9661 C.3     1  UNL1        0.1239
      3 C         139.7379  137.7357  156.9125 C.3     1  UNL1        0.2195
      4 N         140.4111  138.2936  158.1314 N.pl3   1  UNL1       -0.1896
      5 C         141.8517  137.9769  158.4037 C.3     1  UNL1        0.2195
      6 C         142.6193  137.1022  157.4573 C.3     1  UNL1        0.1239
      7 C         139.6435  139.1684  159.0779 C.2     1  UNL1        0.3259
      8 N         139.4980  138.7701  160.5166 N.2     1  UNL1        0.0588
      9 N         138.7305  139.6448  161.4630 N.ar    1  UNL1       -0.0990
     10 C         138.1085  140.9178  160.9707 C.ar    1  UNL1        0.1866
     11 N         137.4149  141.5728  162.1282 N.ar    1  UNL1       -0.1295
     12 N         137.6083  140.7046  163.3361 N.ar    1  UNL1       -0.1211
     13 C         138.4214  139.5130  162.9249 C.ar    1  UNL1        0.2792
     14 C         138.2539  141.3161  159.5319 C.3     1  UNL1        0.0825
     15 C         139.0215  140.4414  158.5855 C.3     1  UNL1        0.1277
     16 C         138.8501  138.3873  163.8187 C.3     1  UNL1        0.4561
     17 F         139.2788  137.2615  164.7125 F       1  UNL1       -0.1631
     18 F         138.1834  137.4052  162.9017 F       1  UNL1       -0.1631
     19 F         139.5169  139.3693  164.7358 F       1  UNL1       -0.1631
     20 C         142.7136  135.6695  155.2920 C.3     1  UNL1        0.0994
     21 F         142.8544  129.7314  156.1397 F       1  UNL1       -0.2042
     22 C         142.8192  131.2159  155.9278 C.ar    1  UNL1        0.1401
     23 C         141.5985  131.8611  155.3418 C.ar    1  UNL1        0.0294
     24 C         141.5632  133.3457  155.1298 C.ar    1  UNL1       -0.0006
     25 C         142.7488  134.1850  155.5039 C.ar    1  UNL1       -0.0060
     26 C         143.9696  133.5398  156.0900 C.ar    1  UNL1       -0.0006
     27 C         144.0048  132.0553  156.3019 C.ar    1  UNL1        0.0294
@<TRIPOS>BOND
     1    21    22    1
     2    22    23   ar
     3    23    24   ar
     4    24    25   ar
     5    25    20    1
     6    20     1    1
     7     1     2    1
     8     2     3    1
     9     3     4    1
    10     4     7    1
    11     7     8    2
    12     8     9    1
    13     9    10   ar
    14    10    11   ar
    15    11    12   ar
    16    12    13   ar
    17    13    16    1
    18    16    17    1
    19    16    18    1
    20    16    19    1
    21    10    14    1
    22    14    15    1
    23     4     5    1
    24     5     6    1
    25    25    26   ar
    26    26    27   ar
    27    27    22   ar
    28     6     1    1
    29    15     7    1
    30    13     9   ar
