@<TRIPOS>MOLECULE
*****
 38 42 0 0 0
SMALL
GASTEIGER

@<TRIPOS>ATOM
      1 N         141.8156  138.2685  163.7102 N.3     1  UNL1       -0.2689
      2 C         142.7771  138.4922  164.8395 C.3     1  UNL1        0.0737
      3 C         144.0325  139.2806  164.6106 C.3     1  UNL1        0.0356
      4 C         144.3263  139.8452  163.2524 C.3     1  UNL1        0.0843
      5 C         143.3648  139.6215  162.1231 C.3     1  UNL1        0.1407
      6 O         143.6587  140.1862  160.7648 O.3     1  UNL1       -0.3817
      7 C         142.1094  138.8332  162.3520 C.3     1  UNL1        0.1031
      8 H         144.5024  140.6642  160.7890 H       1  UNL1        0.2105
      9 N         145.5818  140.6336  163.0235 N.3     1  UNL1       -0.2915
     10 H         145.7777  140.5915  162.0233 H       1  UNL1        0.1236
     11 C         145.6410  142.0802  163.4157 C.3     1  UNL1        0.1152
     12 C         144.4363  142.9558  163.2366 C.ar    1  UNL1        0.0765
     13 C         143.7847  143.5882  164.4305 C.ar    1  UNL1        0.0193
     14 C         142.5799  144.4638  164.2514 C.ar    1  UNL1        0.0411
     15 C         142.0269  144.7069  162.8785 C.ar    1  UNL1        0.1708
     16 C         142.6785  144.0744  161.6846 C.ar    1  UNL1        0.1682
     17 N         143.8832  143.1988  161.8637 N.ar    1  UNL1       -0.2304
     18 N         142.1255  144.3175  160.3116 N.am    1  UNL1       -0.2639
     19 C         140.9207  145.1931  160.1325 C.2     1  UNL1        0.2718
     20 O         140.3676  145.4361  158.7596 O.2     1  UNL1       -0.2707
     21 C         140.2691  145.8255  161.3264 C.3     1  UNL1        0.2898
     22 O         140.8222  145.5825  162.6993 O.3     1  UNL1       -0.4628
     23 H         142.5531  143.9023  159.5280 H       1  UNL1        0.1565
     24 C         140.5601  137.4801  163.9392 C.3     1  UNL1        0.0970
     25 C         139.3442  138.1532  164.5036 C.3     1  UNL1        0.1264
     26 C         140.2489  142.0410  166.5813 C.ar    1  UNL1        0.1403
     27 C         139.7674  143.3347  165.9945 C.ar    1  UNL1        0.0385
     28 C         138.9845  143.3325  164.7151 C.ar    1  UNL1        0.0237
     29 C         138.6829  142.0367  164.0225 C.ar    1  UNL1        0.0975
     30 N         137.8999  142.0345  162.7431 N.ar    1  UNL1       -0.2374
     31 C         137.5983  140.7387  162.0505 C.ar    1  UNL1        0.1594
     32 C         138.0798  139.4448  162.6373 C.ar    1  UNL1        0.2803
     33 O         137.7782  138.1489  161.9447 O.2     1  UNL1       -0.2653
     34 N         138.8628  139.4470  163.9167 N.ar    1  UNL1       -0.2913
     35 C         139.1643  140.7429  164.6093 C.ar    1  UNL1        0.0832
     36 C         139.9473  140.7451  165.8887 C.ar    1  UNL1        0.0557
     37 C         142.5311  142.0716  167.8225 C.3     1  UNL1        0.2525
     38 O         141.0319  142.0431  167.8607 O.3     1  UNL1       -0.4714
@<TRIPOS>BOND
     1    37    38    1
     2    38    26    1
     3    26    27   ar
     4    27    28   ar
     5    28    29   ar
     6    29    30   ar
     7    30    31   ar
     8    31    32   ar
     9    32    33    2
    10    32    34   ar
    11    34    25    1
    12    25    24    1
    13    24     1    1
    14     1     2    1
    15     2     3    1
    16     3     4    1
    17     4     9    1
    18     9    11    1
    19    11    12    1
    20    12    13   ar
    21    13    14   ar
    22    14    15   ar
    23    15    16   ar
    24    16    17   ar
    25    16    18    1
    26    18    19   am
    27    19    20    2
    28    19    21    1
    29    21    22    1
    30     4     5    1
    31     5     6    1
    32     5     7    1
    33    34    35   ar
    34    35    36   ar
    35    36    26   ar
    36    35    29   ar
    37     7     1    1
    38    17    12   ar
    39    22    15    1
    40     9    10    1
    41    18    23    1
    42     6     8    1
@<TRIPOS>MOLECULE
*****
 38 42 0 0 0
SMALL
GASTEIGER

@<TRIPOS>ATOM
      1 N         138.9873  143.2235  162.7155 N.3     1  UNL1       -0.2689
      2 C         139.4798  143.4775  164.1094 C.3     1  UNL1        0.0737
      3 C         140.7545  144.2373  164.3277 C.3     1  UNL1        0.0356
      4 C         141.5367  144.7431  163.1520 C.3     1  UNL1        0.0843
      5 C         141.0443  144.4891  161.7581 C.3     1  UNL1        0.1407
      6 O         141.8267  144.9949  160.5825 O.3     1  UNL1       -0.3817
      7 C         139.7696  143.7293  161.5399 C.3     1  UNL1        0.1031
      8 H         142.6173  145.4609  160.8965 H       1  UNL1        0.2105
      9 N         142.8115  145.5030  163.3703 N.3     1  UNL1       -0.2915
     10 H         142.7755  145.8718  164.3206 H       1  UNL1        0.1236
     11 C         144.1330  144.8082  163.2252 C.3     1  UNL1        0.1152
     12 C         144.1848  143.3150  163.0930 C.ar    1  UNL1        0.0765
     13 C         144.5382  142.4688  164.2800 C.ar    1  UNL1        0.0193
     14 C         144.5899  140.9755  164.1479 C.ar    1  UNL1        0.0411
     15 C         144.2883  140.3285  162.8287 C.ar    1  UNL1        0.1708
     16 C         143.9348  141.1747  161.6416 C.ar    1  UNL1        0.1682
     17 N         143.8831  142.6679  161.7738 N.ar    1  UNL1       -0.2304
     18 N         143.6331  140.5276  160.3224 N.am    1  UNL1       -0.2639
     19 C         143.6849  139.0343  160.1903 C.2     1  UNL1        0.2718
     20 O         143.3832  138.3873  158.8711 O.2     1  UNL1       -0.2707
     21 C         144.0383  138.1882  161.3773 C.3     1  UNL1        0.2898
     22 O         144.3400  138.8352  162.6965 O.3     1  UNL1       -0.4628
     23 H         143.4012  141.0830  159.5433 H       1  UNL1        0.1565
     24 C         137.7125  142.4636  162.4973 C.3     1  UNL1        0.0970
     25 C         137.5268  141.1142  163.1256 C.3     1  UNL1        0.1264
     26 C         140.8001  139.7186  165.8801 C.ar    1  UNL1        0.1403
     27 C         141.6833  138.5754  165.4765 C.ar    1  UNL1        0.0385
     28 C         141.4755  137.8974  164.1547 C.ar    1  UNL1        0.0237
     29 C         140.3844  138.3626  163.2365 C.ar    1  UNL1        0.0975
     30 N         140.1765  137.6845  161.9148 N.ar    1  UNL1       -0.2374
     31 C         139.0854  138.1497  160.9966 C.ar    1  UNL1        0.1594
     32 C         138.2022  139.2930  161.4002 C.ar    1  UNL1        0.2803
     33 O         137.1111  139.7582  160.4820 O.2     1  UNL1       -0.2653
     34 N         138.4100  139.9710  162.7220 N.ar    1  UNL1       -0.2913
     35 C         139.5012  139.5058  163.6401 C.ar    1  UNL1        0.0832
     36 C         139.7090  140.1838  164.9619 C.ar    1  UNL1        0.0557
     37 C         141.7520  141.6973  167.2687 C.3     1  UNL1        0.2525
     38 O         141.0080  140.3966  167.2018 O.3     1  UNL1       -0.4714
@<TRIPOS>BOND
     1    37    38    1
     2    38    26    1
     3    26    27   ar
     4    27    28   ar
     5    28    29   ar
     6    29    30   ar
     7    30    31   ar
     8    31    32   ar
     9    32    33    2
    10    32    34   ar
    11    34    25    1
    12    25    24    1
    13    24     1    1
    14     1     2    1
    15     2     3    1
    16     3     4    1
    17     4     9    1
    18     9    11    1
    19    11    12    1
    20    12    13   ar
    21    13    14   ar
    22    14    15   ar
    23    15    16   ar
    24    16    17   ar
    25    16    18    1
    26    18    19   am
    27    19    20    2
    28    19    21    1
    29    21    22    1
    30     4     5    1
    31     5     6    1
    32     5     7    1
    33    34    35   ar
    34    35    36   ar
    35    36    26   ar
    36    35    29   ar
    37     7     1    1
    38    17    12   ar
    39    22    15    1
    40     9    10    1
    41    18    23    1
    42     6     8    1
@<TRIPOS>MOLECULE
*****
 38 42 0 0 0
SMALL
GASTEIGER

@<TRIPOS>ATOM
      1 N         143.6630  142.1830  163.4846 N.3     1  UNL1       -0.2689
      2 C         143.0692  142.8929  164.6650 C.3     1  UNL1        0.0737
      3 C         142.2666  144.1437  164.4621 C.3     1  UNL1        0.0356
      4 C         142.0578  144.6847  163.0787 C.3     1  UNL1        0.0843
      5 C         142.6516  143.9748  161.8983 C.3     1  UNL1        0.1407
      6 O         142.4428  144.5158  160.5148 O.3     1  UNL1       -0.3817
      7 C         143.4542  142.7240  162.1012 C.3     1  UNL1        0.1031
      8 H         141.9062  145.3225  160.5607 H       1  UNL1        0.2105
      9 N         141.2552  145.9355  162.8757 N.3     1  UNL1       -0.2915
     10 H         141.7697  146.5105  162.2086 H       1  UNL1        0.1236
     11 C         139.8442  145.8482  162.3742 C.3     1  UNL1        0.1152
     12 C         139.1950  144.5084  162.1908 C.ar    1  UNL1        0.0765
     13 C         138.4214  143.8895  163.3170 C.ar    1  UNL1        0.0193
     14 C         137.7722  142.5497  163.1337 C.ar    1  UNL1        0.0411
     15 C         137.8967  141.8289  161.8241 C.ar    1  UNL1        0.1708
     16 C         138.6703  142.4479  160.6979 C.ar    1  UNL1        0.1682
     17 N         139.3195  143.7876  160.8813 N.ar    1  UNL1       -0.2304
     18 N         138.7948  141.7271  159.3883 N.am    1  UNL1       -0.2639
     19 C         138.1456  140.3873  159.2050 C.2     1  UNL1        0.2718
     20 O         138.2701  139.6666  157.8954 O.2     1  UNL1       -0.2707
     21 C         137.3720  139.7684  160.3311 C.3     1  UNL1        0.2898
     22 O         137.2475  140.4892  161.6407 O.3     1  UNL1       -0.4628
     23 H         139.3026  142.1334  158.6491 H       1  UNL1        0.1565
     24 C         144.4657  140.9322  163.6876 C.3     1  UNL1        0.0970
     25 C         143.8237  139.7190  164.2927 C.3     1  UNL1        0.1264
     26 C         139.8675  140.3848  166.3312 C.ar    1  UNL1        0.1403
     27 C         138.6117  139.8236  165.7329 C.ar    1  UNL1        0.0385
     28 C         138.6746  139.0405  164.4551 C.ar    1  UNL1        0.0237
     29 C         139.9933  138.8185  163.7756 C.ar    1  UNL1        0.0975
     30 N         140.0562  138.0354  162.4978 N.ar    1  UNL1       -0.2374
     31 C         141.3749  137.8135  161.8183 C.ar    1  UNL1        0.1594
     32 C         142.6308  138.3747  162.4166 C.ar    1  UNL1        0.2803
     33 O         143.9495  138.1528  161.7371 O.2     1  UNL1       -0.2653
     34 N         142.5679  139.1578  163.6944 N.ar    1  UNL1       -0.2913
     35 C         141.2491  139.3797  164.3739 C.ar    1  UNL1        0.0832
     36 C         141.1862  140.1629  165.6517 C.ar    1  UNL1        0.0557
     37 C         140.6019  142.4300  167.7551 C.3     1  UNL1        0.2525
     38 O         139.8046  141.1679  167.6090 O.3     1  UNL1       -0.4714
@<TRIPOS>BOND
     1    37    38    1
     2    38    26    1
     3    26    27   ar
     4    27    28   ar
     5    28    29   ar
     6    29    30   ar
     7    30    31   ar
     8    31    32   ar
     9    32    33    2
    10    32    34   ar
    11    34    25    1
    12    25    24    1
    13    24     1    1
    14     1     2    1
    15     2     3    1
    16     3     4    1
    17     4     9    1
    18     9    11    1
    19    11    12    1
    20    12    13   ar
    21    13    14   ar
    22    14    15   ar
    23    15    16   ar
    24    16    17   ar
    25    16    18    1
    26    18    19   am
    27    19    20    2
    28    19    21    1
    29    21    22    1
    30     4     5    1
    31     5     6    1
    32     5     7    1
    33    34    35   ar
    34    35    36   ar
    35    36    26   ar
    36    35    29   ar
    37     7     1    1
    38    17    12   ar
    39    22    15    1
    40     9    10    1
    41    18    23    1
    42     6     8    1
@<TRIPOS>MOLECULE
*****
 38 42 0 0 0
SMALL
GASTEIGER

@<TRIPOS>ATOM
      1 N         138.2913  140.5203  163.5760 N.3     1  UNL1       -0.2689
      2 C         138.0725  141.5562  164.6385 C.3     1  UNL1        0.0737
      3 C         137.9177  142.9990  164.2587 C.3     1  UNL1        0.0356
      4 C         137.9819  143.4059  162.8164 C.3     1  UNL1        0.0843
      5 C         138.2007  142.3700  161.7539 C.3     1  UNL1        0.1407
      6 O         138.2648  142.7769  160.3116 O.3     1  UNL1       -0.3817
      7 C         138.3554  140.9272  162.1337 C.3     1  UNL1        0.1031
      8 H         138.1471  143.7371  160.2410 H       1  UNL1        0.2105
      9 N         137.8271  144.8488  162.4366 N.3     1  UNL1       -0.2915
     10 H         137.1841  145.2635  163.1110 H       1  UNL1        0.1236
     11 C         139.0305  145.7425  162.3795 C.3     1  UNL1        0.1152
     12 C         140.4056  145.1461  162.3231 C.ar    1  UNL1        0.0765
     13 C         141.3249  145.2684  163.5020 C.ar    1  UNL1        0.0193
     14 C         142.7002  144.6720  163.4457 C.ar    1  UNL1        0.0411
     15 C         143.1560  143.9533  162.2105 C.ar    1  UNL1        0.1708
     16 C         142.2366  143.8311  161.0316 C.ar    1  UNL1        0.1682
     17 N         140.8614  144.4275  161.0879 N.ar    1  UNL1       -0.2304
     18 N         142.6924  143.1124  159.7964 N.am    1  UNL1       -0.2639
     19 C         144.0676  142.5160  159.7401 C.2     1  UNL1        0.2718
     20 O         144.5235  141.7974  158.5048 O.2     1  UNL1       -0.2707
     21 C         144.9870  142.6383  160.9189 C.3     1  UNL1        0.2898
     22 O         144.5312  143.3569  162.1542 O.3     1  UNL1       -0.4628
     23 H         142.0890  143.0322  159.0226 H       1  UNL1        0.1565
     24 C         138.4461  139.0774  163.9559 C.3     1  UNL1        0.0970
     25 C         139.6525  138.6301  164.7269 C.3     1  UNL1        0.1264
     26 C         141.8727  141.9495  166.8010 C.ar    1  UNL1        0.1403
     27 C         143.2454  142.3377  166.3375 C.ar    1  UNL1        0.0385
     28 C         143.8781  141.6194  165.1825 C.ar    1  UNL1        0.0237
     29 C         143.1380  140.5130  164.4912 C.ar    1  UNL1        0.0975
     30 N         143.7707  139.7947  163.3362 N.ar    1  UNL1       -0.2374
     31 C         143.0306  138.6883  162.6449 C.ar    1  UNL1        0.1594
     32 C         141.6578  138.3000  163.1084 C.ar    1  UNL1        0.2803
     33 O         140.9178  137.1936  162.4171 O.2     1  UNL1       -0.2653
     34 N         141.0252  139.0183  164.2634 N.ar    1  UNL1       -0.2913
     35 C         141.7653  140.1248  164.9547 C.ar    1  UNL1        0.0832
     36 C         141.1327  140.8430  166.1097 C.ar    1  UNL1        0.0557
     37 C         140.4562  141.8995  168.9784 C.3     1  UNL1        0.2525
     38 O         141.2401  142.6677  167.9560 O.3     1  UNL1       -0.4714
@<TRIPOS>BOND
     1    37    38    1
     2    38    26    1
     3    26    27   ar
     4    27    28   ar
     5    28    29   ar
     6    29    30   ar
     7    30    31   ar
     8    31    32   ar
     9    32    33    2
    10    32    34   ar
    11    34    25    1
    12    25    24    1
    13    24     1    1
    14     1     2    1
    15     2     3    1
    16     3     4    1
    17     4     9    1
    18     9    11    1
    19    11    12    1
    20    12    13   ar
    21    13    14   ar
    22    14    15   ar
    23    15    16   ar
    24    16    17   ar
    25    16    18    1
    26    18    19   am
    27    19    20    2
    28    19    21    1
    29    21    22    1
    30     4     5    1
    31     5     6    1
    32     5     7    1
    33    34    35   ar
    34    35    36   ar
    35    36    26   ar
    36    35    29   ar
    37     7     1    1
    38    17    12   ar
    39    22    15    1
    40     9    10    1
    41    18    23    1
    42     6     8    1
@<TRIPOS>MOLECULE
*****
 38 42 0 0 0
SMALL
GASTEIGER

@<TRIPOS>ATOM
      1 N         137.9127  142.6778  163.5954 N.3     1  UNL1       -0.2689
      2 C         137.7623  142.4710  162.1174 C.3     1  UNL1        0.0737
      3 C         137.7941  141.0840  161.5471 C.3     1  UNL1        0.0356
      4 C         137.9762  139.9039  162.4549 C.3     1  UNL1        0.0843
      5 C         138.1266  140.1107  163.9329 C.3     1  UNL1        0.1407
      6 O         138.3087  138.9305  164.8407 O.3     1  UNL1       -0.3817
      7 C         138.0948  141.4977  164.5032 C.3     1  UNL1        0.1031
      8 H         138.3062  138.1151  164.3154 H       1  UNL1        0.2105
      9 N         138.0080  138.5168  161.8847 N.3     1  UNL1       -0.2915
     10 H         137.2557  138.4635  161.1979 H       1  UNL1        0.1236
     11 C         139.2482  138.0121  161.2085 C.3     1  UNL1        0.1152
     12 C         140.5925  138.2586  161.8266 C.ar    1  UNL1        0.0765
     13 C         141.7369  138.7197  160.9736 C.ar    1  UNL1        0.0193
     14 C         143.0813  138.9662  161.5916 C.ar    1  UNL1        0.0411
     15 C         143.2813  138.7515  163.0626 C.ar    1  UNL1        0.1708
     16 C         142.1368  138.2903  163.9156 C.ar    1  UNL1        0.1682
     17 N         140.7925  138.0438  163.2976 N.ar    1  UNL1       -0.2304
     18 N         142.3367  138.0756  165.3866 N.am    1  UNL1       -0.2639
     19 C         143.6811  138.3220  166.0047 C.2     1  UNL1        0.2718
     20 O         143.8811  138.1073  167.4757 O.2     1  UNL1       -0.2707
     21 C         144.8255  138.7832  165.1517 C.3     1  UNL1        0.2898
     22 O         144.6256  138.9979  163.6806 O.3     1  UNL1       -0.4628
     23 H         141.5856  137.7729  165.9465 H       1  UNL1        0.1565
     24 C         137.8809  144.0649  164.1656 C.3     1  UNL1        0.0970
     25 C         139.1600  144.8216  164.3692 C.3     1  UNL1        0.1264
     26 C         142.7219  142.2962  165.4580 C.ar    1  UNL1        0.1403
     27 C         143.8520  142.1343  164.4851 C.ar    1  UNL1        0.0385
     28 C         143.7948  142.8143  163.1493 C.ar    1  UNL1        0.0237
     29 C         142.6076  143.6561  162.7863 C.ar    1  UNL1        0.0975
     30 N         142.5505  144.3360  161.4505 N.ar    1  UNL1       -0.2374
     31 C         141.3632  145.1778  161.0876 C.ar    1  UNL1        0.1594
     32 C         140.2330  145.3397  162.0605 C.ar    1  UNL1        0.2803
     33 O         139.0457  146.1815  161.6976 O.2     1  UNL1       -0.2653
     34 N         140.2901  144.6597  163.3963 N.ar    1  UNL1       -0.2913
     35 C         141.4775  143.8179  163.7592 C.ar    1  UNL1        0.0832
     36 C         141.5346  143.1380  165.0950 C.ar    1  UNL1        0.0557
     37 C         143.1138  142.4065  168.0239 C.3     1  UNL1        0.2525
     38 O         142.7790  141.6162  166.7938 O.3     1  UNL1       -0.4714
@<TRIPOS>BOND
     1    37    38    1
     2    38    26    1
     3    26    27   ar
     4    27    28   ar
     5    28    29   ar
     6    29    30   ar
     7    30    31   ar
     8    31    32   ar
     9    32    33    2
    10    32    34   ar
    11    34    25    1
    12    25    24    1
    13    24     1    1
    14     1     2    1
    15     2     3    1
    16     3     4    1
    17     4     9    1
    18     9    11    1
    19    11    12    1
    20    12    13   ar
    21    13    14   ar
    22    14    15   ar
    23    15    16   ar
    24    16    17   ar
    25    16    18    1
    26    18    19   am
    27    19    20    2
    28    19    21    1
    29    21    22    1
    30     4     5    1
    31     5     6    1
    32     5     7    1
    33    34    35   ar
    34    35    36   ar
    35    36    26   ar
    36    35    29   ar
    37     7     1    1
    38    17    12   ar
    39    22    15    1
    40     9    10    1
    41    18    23    1
    42     6     8    1
@<TRIPOS>MOLECULE
*****
 38 42 0 0 0
SMALL
GASTEIGER

@<TRIPOS>ATOM
      1 N         140.5291  140.1365  160.8224 N.3     1  UNL1       -0.2689
      2 C         141.2727  141.4377  160.8864 C.3     1  UNL1        0.0737
      3 C         142.7126  141.4587  161.3061 C.3     1  UNL1        0.0356
      4 C         143.4089  140.1786  161.6618 C.3     1  UNL1        0.0843
      5 C         142.6653  138.8775  161.5978 C.3     1  UNL1        0.1407
      6 O         143.3616  137.5974  161.9535 O.3     1  UNL1       -0.3817
      7 C         141.2254  138.8565  161.1781 C.3     1  UNL1        0.1031
      8 H         144.2803  137.7869  162.2005 H       1  UNL1        0.2105
      9 N         144.8489  140.1996  162.0815 N.3     1  UNL1       -0.2915
     10 H         145.3432  140.7854  161.4086 H       1  UNL1        0.1236
     11 C         145.2251  140.6958  163.4462 C.3     1  UNL1        0.1152
     12 C         144.3352  140.4108  164.6196 C.ar    1  UNL1        0.0765
     13 C         144.1904  139.0068  165.1274 C.ar    1  UNL1        0.0193
     14 C         143.3004  138.7218  166.3008 C.ar    1  UNL1        0.0411
     15 C         142.5553  139.8407  166.9663 C.ar    1  UNL1        0.1708
     16 C         142.7002  141.2447  166.4584 C.ar    1  UNL1        0.1682
     17 N         143.5901  141.5297  165.2850 N.ar    1  UNL1       -0.2304
     18 N         141.9551  142.3636  167.1238 N.am    1  UNL1       -0.2639
     19 C         141.0651  142.0786  168.2972 C.2     1  UNL1        0.2718
     20 O         140.3200  143.1975  168.9627 O.2     1  UNL1       -0.2707
     21 C         140.9203  140.6746  168.8051 C.3     1  UNL1        0.2898
     22 O         141.6654  139.5557  168.1396 O.3     1  UNL1       -0.4628
     23 H         142.0501  143.2851  166.7905 H       1  UNL1        0.1565
     24 C         139.0891  140.1155  160.4026 C.3     1  UNL1        0.0970
     25 C         138.0085  140.3406  161.4183 C.3     1  UNL1        0.1264
     26 C         138.5884  144.5106  163.0072 C.ar    1  UNL1        0.1403
     27 C         138.9460  144.7210  164.4487 C.ar    1  UNL1        0.0385
     28 C         139.1103  143.5413  165.3605 C.ar    1  UNL1        0.0237
     29 C         138.9170  142.1514  164.8309 C.ar    1  UNL1        0.0975
     30 N         139.0813  140.9717  165.7428 N.ar    1  UNL1       -0.2374
     31 C         138.8880  139.5817  165.2132 C.ar    1  UNL1        0.1594
     32 C         138.5304  139.3713  163.7716 C.ar    1  UNL1        0.2803
     33 O         138.3371  137.9814  163.2420 O.2     1  UNL1       -0.2653
     34 N         138.3661  140.5510  162.8598 N.ar    1  UNL1       -0.2913
     35 C         138.5594  141.9410  163.3895 C.ar    1  UNL1        0.0832
     36 C         138.3951  143.1207  162.4776 C.ar    1  UNL1        0.0557
     37 C         139.6331  146.3966  161.5575 C.3     1  UNL1        0.2525
     38 O         138.4241  145.6903  162.0954 O.3     1  UNL1       -0.4714
@<TRIPOS>BOND
     1    37    38    1
     2    38    26    1
     3    26    27   ar
     4    27    28   ar
     5    28    29   ar
     6    29    30   ar
     7    30    31   ar
     8    31    32   ar
     9    32    33    2
    10    32    34   ar
    11    34    25    1
    12    25    24    1
    13    24     1    1
    14     1     2    1
    15     2     3    1
    16     3     4    1
    17     4     9    1
    18     9    11    1
    19    11    12    1
    20    12    13   ar
    21    13    14   ar
    22    14    15   ar
    23    15    16   ar
    24    16    17   ar
    25    16    18    1
    26    18    19   am
    27    19    20    2
    28    19    21    1
    29    21    22    1
    30     4     5    1
    31     5     6    1
    32     5     7    1
    33    34    35   ar
    34    35    36   ar
    35    36    26   ar
    36    35    29   ar
    37     7     1    1
    38    17    12   ar
    39    22    15    1
    40     9    10    1
    41    18    23    1
    42     6     8    1
@<TRIPOS>MOLECULE
*****
 38 42 0 0 0
SMALL
GASTEIGER

@<TRIPOS>ATOM
      1 N         143.2463  139.2063  161.5183 N.3     1  UNL1       -0.2689
      2 C         143.6501  138.7883  162.9011 C.3     1  UNL1        0.0737
      3 C         144.5206  139.6844  163.7313 C.3     1  UNL1        0.0356
      4 C         144.9872  140.9985  163.1786 C.3     1  UNL1        0.0843
      5 C         144.5834  141.4164  161.7958 C.3     1  UNL1        0.1407
      6 O         145.0501  142.7305  161.2431 O.3     1  UNL1       -0.3817
      7 C         143.7130  140.5203  160.9656 C.3     1  UNL1        0.1031
      8 H         145.5993  143.1821  161.9030 H       1  UNL1        0.2105
      9 N         145.8578  141.8947  164.0088 N.3     1  UNL1       -0.2915
     10 H         146.5294  142.3244  163.3727 H       1  UNL1        0.1236
     11 C         145.2442  143.0068  164.8067 C.3     1  UNL1        0.1152
     12 C         143.7736  143.2826  164.7014 C.ar    1  UNL1        0.0765
     13 C         142.8212  142.6542  165.6751 C.ar    1  UNL1        0.0193
     14 C         141.3504  142.9299  165.5699 C.ar    1  UNL1        0.0411
     15 C         140.8322  143.8340  164.4910 C.ar    1  UNL1        0.1708
     16 C         141.7847  144.4624  163.5173 C.ar    1  UNL1        0.1682
     17 N         143.2553  144.1867  163.6226 N.ar    1  UNL1       -0.2304
     18 N         141.2664  145.3665  162.4385 N.am    1  UNL1       -0.2639
     19 C         139.7957  145.6422  162.3332 C.2     1  UNL1        0.2718
     20 O         139.2774  146.5464  161.2544 O.2     1  UNL1       -0.2707
     21 C         138.8433  145.0138  163.3069 C.3     1  UNL1        0.2898
     22 O         139.3615  144.1097  164.3857 O.3     1  UNL1       -0.4628
     23 H         141.8915  145.7790  161.7994 H       1  UNL1        0.1565
     24 C         142.3758  138.3101  160.6881 C.3     1  UNL1        0.0970
     25 C         141.0448  137.8607  161.2138 C.3     1  UNL1        0.1264
     26 C         139.5364  139.7080  165.0299 C.ar    1  UNL1        0.1403
     27 C         138.3633  140.6422  164.9983 C.ar    1  UNL1        0.0385
     28 C         137.6930  140.9606  163.6948 C.ar    1  UNL1        0.0237
     29 C         138.1957  140.3449  162.4228 C.ar    1  UNL1        0.0975
     30 N         137.5254  140.6633  161.1192 N.ar    1  UNL1       -0.2374
     31 C         138.0282  140.0476  159.8472 C.ar    1  UNL1        0.1594
     32 C         139.2014  139.1133  159.8787 C.ar    1  UNL1        0.2803
     33 O         139.7041  138.4976  158.6067 O.2     1  UNL1       -0.2653
     34 N         139.8717  138.7949  161.1823 N.ar    1  UNL1       -0.2913
     35 C         139.3688  139.4107  162.4543 C.ar    1  UNL1        0.0832
     36 C         140.0392  139.0922  163.7579 C.ar    1  UNL1        0.0557
     37 C         139.8335  140.1466  167.5733 C.3     1  UNL1        0.2525
     38 O         140.2067  139.3895  166.3334 O.3     1  UNL1       -0.4714
@<TRIPOS>BOND
     1    37    38    1
     2    38    26    1
     3    26    27   ar
     4    27    28   ar
     5    28    29   ar
     6    29    30   ar
     7    30    31   ar
     8    31    32   ar
     9    32    33    2
    10    32    34   ar
    11    34    25    1
    12    25    24    1
    13    24     1    1
    14     1     2    1
    15     2     3    1
    16     3     4    1
    17     4     9    1
    18     9    11    1
    19    11    12    1
    20    12    13   ar
    21    13    14   ar
    22    14    15   ar
    23    15    16   ar
    24    16    17   ar
    25    16    18    1
    26    18    19   am
    27    19    20    2
    28    19    21    1
    29    21    22    1
    30     4     5    1
    31     5     6    1
    32     5     7    1
    33    34    35   ar
    34    35    36   ar
    35    36    26   ar
    36    35    29   ar
    37     7     1    1
    38    17    12   ar
    39    22    15    1
    40     9    10    1
    41    18    23    1
    42     6     8    1
@<TRIPOS>MOLECULE
*****
 38 42 0 0 0
SMALL
GASTEIGER

@<TRIPOS>ATOM
      1 N         142.9575  143.9855  163.2195 N.3     1  UNL1       -0.2689
      2 C         142.6146  143.4564  161.8584 C.3     1  UNL1        0.0737
      3 C         141.1963  143.5000  161.3722 C.3     1  UNL1        0.0356
      4 C         140.1208  144.0726  162.2471 C.3     1  UNL1        0.0843
      5 C         140.4637  144.6016  163.6082 C.3     1  UNL1        0.1407
      6 O         139.3881  145.1742  164.4831 O.3     1  UNL1       -0.3817
      7 C         141.8820  144.5581  164.0943 C.3     1  UNL1        0.1031
      8 H         138.5364  145.1267  164.0214 H       1  UNL1        0.2105
      9 N         138.7024  144.1161  161.7609 N.3     1  UNL1       -0.2915
     10 H         138.6773  144.7776  160.9848 H       1  UNL1        0.1236
     11 C         138.0349  142.8611  161.2819 C.3     1  UNL1        0.1152
     12 C         138.2866  141.5616  161.9874 C.ar    1  UNL1        0.0765
     13 C         138.9057  140.4136  161.2465 C.ar    1  UNL1        0.0193
     14 C         139.1574  139.1140  161.9520 C.ar    1  UNL1        0.0411
     15 C         138.7901  138.9624  163.3984 C.ar    1  UNL1        0.1708
     16 C         138.1710  140.1104  164.1393 C.ar    1  UNL1        0.1682
     17 N         137.9193  141.4100  163.4338 N.ar    1  UNL1       -0.2304
     18 N         137.8037  139.9588  165.5857 N.am    1  UNL1       -0.2639
     19 C         138.0554  138.6592  166.2912 C.2     1  UNL1        0.2718
     20 O         137.6881  138.5076  167.7376 O.2     1  UNL1       -0.2707
     21 C         138.6744  137.5112  165.5503 C.3     1  UNL1        0.2898
     22 O         139.0418  137.6629  164.1039 O.3     1  UNL1       -0.4628
     23 H         137.3974  140.7123  166.0720 H       1  UNL1        0.1565
     24 C         144.3759  143.9419  163.7056 C.3     1  UNL1        0.0970
     25 C         144.8627  142.7621  164.4937 C.3     1  UNL1        0.1264
     26 C         142.1207  141.8654  167.9473 C.ar    1  UNL1        0.1403
     27 C         141.3251  140.5939  167.9627 C.ar    1  UNL1        0.0385
     28 C         141.4435  139.6213  166.8269 C.ar    1  UNL1        0.0237
     29 C         142.3575  139.9202  165.6757 C.ar    1  UNL1        0.0975
     30 N         142.4758  138.9476  164.5399 N.ar    1  UNL1       -0.2374
     31 C         143.3898  139.2464  163.3887 C.ar    1  UNL1        0.1594
     32 C         144.1854  140.5180  163.3733 C.ar    1  UNL1        0.2803
     33 O         145.0994  140.8169  162.2221 O.2     1  UNL1       -0.2653
     34 N         144.0671  141.4906  164.5091 N.ar    1  UNL1       -0.2913
     35 C         143.1531  141.1917  165.6603 C.ar    1  UNL1        0.0832
     36 C         143.0347  142.1643  166.7961 C.ar    1  UNL1        0.0557
     37 C         143.0013  142.8100  170.2017 C.3     1  UNL1        0.2525
     38 O         142.0024  142.8380  169.0831 O.3     1  UNL1       -0.4714
@<TRIPOS>BOND
     1    37    38    1
     2    38    26    1
     3    26    27   ar
     4    27    28   ar
     5    28    29   ar
     6    29    30   ar
     7    30    31   ar
     8    31    32   ar
     9    32    33    2
    10    32    34   ar
    11    34    25    1
    12    25    24    1
    13    24     1    1
    14     1     2    1
    15     2     3    1
    16     3     4    1
    17     4     9    1
    18     9    11    1
    19    11    12    1
    20    12    13   ar
    21    13    14   ar
    22    14    15   ar
    23    15    16   ar
    24    16    17   ar
    25    16    18    1
    26    18    19   am
    27    19    20    2
    28    19    21    1
    29    21    22    1
    30     4     5    1
    31     5     6    1
    32     5     7    1
    33    34    35   ar
    34    35    36   ar
    35    36    26   ar
    36    35    29   ar
    37     7     1    1
    38    17    12   ar
    39    22    15    1
    40     9    10    1
    41    18    23    1
    42     6     8    1
@<TRIPOS>MOLECULE
*****
 38 42 0 0 0
SMALL
GASTEIGER

@<TRIPOS>ATOM
      1 N         140.3146  143.8237  164.1246 N.3     1  UNL1       -0.2689
      2 C         140.8375  143.1055  165.3331 C.3     1  UNL1        0.0737
      3 C         142.2995  142.7886  165.4430 C.3     1  UNL1        0.0356
      4 C         143.2385  143.1899  164.3443 C.3     1  UNL1        0.0843
      5 C         142.7155  143.9081  163.1358 C.3     1  UNL1        0.1407
      6 O         143.6546  144.3094  162.0370 O.3     1  UNL1       -0.3817
      7 C         141.2535  144.2250  163.0259 C.3     1  UNL1        0.1031
      8 H         144.5558  144.0316  162.2643 H       1  UNL1        0.2105
      9 N         144.7006  142.8730  164.4542 N.3     1  UNL1       -0.2915
     10 H         144.9880  143.1323  165.3979 H       1  UNL1        0.1236
     11 C         145.1836  141.4717  164.2240 C.3     1  UNL1        0.1152
     12 C         144.4118  140.5502  163.3268 C.ar    1  UNL1        0.0765
     13 C         143.4417  139.5691  163.9152 C.ar    1  UNL1        0.0193
     14 C         142.6697  138.6475  163.0180 C.ar    1  UNL1        0.0411
     15 C         142.8680  138.7071  161.5324 C.ar    1  UNL1        0.1708
     16 C         143.8382  139.6883  160.9439 C.ar    1  UNL1        0.1682
     17 N         144.6101  140.6098  161.8412 N.ar    1  UNL1       -0.2304
     18 N         144.0365  139.7478  159.4583 N.am    1  UNL1       -0.2639
     19 C         143.2646  138.8263  158.5611 C.2     1  UNL1        0.2718
     20 O         143.4628  138.8858  157.0754 O.2     1  UNL1       -0.2707
     21 C         142.2944  137.8452  159.1495 C.3     1  UNL1        0.2898
     22 O         142.0962  137.7856  160.6351 O.3     1  UNL1       -0.4628
     23 H         144.6732  140.3918  159.0721 H       1  UNL1        0.1565
     24 C         138.8525  144.1406  164.0147 C.3     1  UNL1        0.0970
     25 C         137.8467  143.0293  163.9539 C.3     1  UNL1        0.1264
     26 C         138.5595  139.1095  166.0460 C.ar    1  UNL1        0.1403
     27 C         138.8532  137.8751  165.2461 C.ar    1  UNL1        0.0385
     28 C         138.9093  137.9472  163.7489 C.ar    1  UNL1        0.0237
     29 C         138.6718  139.2538  163.0516 C.ar    1  UNL1        0.0975
     30 N         138.7279  139.3259  161.5543 N.ar    1  UNL1       -0.2374
     31 C         138.4903  140.6325  160.8570 C.ar    1  UNL1        0.1594
     32 C         138.1966  141.8670  161.6568 C.ar    1  UNL1        0.2803
     33 O         137.9590  143.1736  160.9595 O.2     1  UNL1       -0.2653
     34 N         138.1404  141.7949  163.1541 N.ar    1  UNL1       -0.2913
     35 C         138.3781  140.4882  163.8514 C.ar    1  UNL1        0.0832
     36 C         138.3219  140.4161  165.3486 C.ar    1  UNL1        0.0557
     37 C         139.3414  139.9662  168.3707 C.3     1  UNL1        0.2525
     38 O         138.5034  139.0374  167.5432 O.3     1  UNL1       -0.4714
@<TRIPOS>BOND
     1    37    38    1
     2    38    26    1
     3    26    27   ar
     4    27    28   ar
     5    28    29   ar
     6    29    30   ar
     7    30    31   ar
     8    31    32   ar
     9    32    33    2
    10    32    34   ar
    11    34    25    1
    12    25    24    1
    13    24     1    1
    14     1     2    1
    15     2     3    1
    16     3     4    1
    17     4     9    1
    18     9    11    1
    19    11    12    1
    20    12    13   ar
    21    13    14   ar
    22    14    15   ar
    23    15    16   ar
    24    16    17   ar
    25    16    18    1
    26    18    19   am
    27    19    20    2
    28    19    21    1
    29    21    22    1
    30     4     5    1
    31     5     6    1
    32     5     7    1
    33    34    35   ar
    34    35    36   ar
    35    36    26   ar
    36    35    29   ar
    37     7     1    1
    38    17    12   ar
    39    22    15    1
    40     9    10    1
    41    18    23    1
    42     6     8    1
