@<TRIPOS>MOLECULE
*****
 26 28 0 0 0
SMALL
GASTEIGER

@<TRIPOS>ATOM
      1 C         138.5734  140.0812  165.4898 C.3     1  UNL1        0.0992
      2 C         137.4808  138.3284  167.0659 C.3     1  UNL1        0.0902
      3 N         138.3246  138.6512  165.8685 N.3     1  UNL1       -0.2639
      4 C         138.9197  137.5442  165.0498 C.3     1  UNL1        0.0995
      5 C         140.2046  137.7668  164.3085 C.ar    1  UNL1       -0.0029
      6 C         141.4580  138.0981  165.0628 C.ar    1  UNL1        0.0004
      7 C         142.7429  138.3208  164.3215 C.ar    1  UNL1        0.0399
      8 C         142.7743  138.2122  162.8257 C.ar    1  UNL1        0.1764
      9 C         141.5208  137.8808  162.0713 C.ar    1  UNL1        0.1762
     10 C         140.2360  137.6582  162.8127 C.ar    1  UNL1        0.0373
     11 O         141.8562  137.8411  160.6099 O.3     1  UNL1       -0.4346
     12 C         143.3169  138.1478  160.4610 C.3     1  UNL1        0.4294
     13 O         143.8843  138.3772  161.8305 O.3     1  UNL1       -0.4346
     14 C         139.4621  140.9388  166.3412 C.2     1  UNL1       -0.0088
     15 C         139.9639  140.4238  167.6575 C.2     1  UNL1       -0.0032
     16 C         140.8526  141.2815  168.5089 C.ar    1  UNL1        0.0038
     17 C         140.3336  142.5704  169.0737 C.ar    1  UNL1        0.0022
     18 C         141.2223  143.4280  169.9250 C.ar    1  UNL1        0.0296
     19 C         142.6300  142.9967  170.2115 C.ar    1  UNL1        0.1401
     20 F         143.5187  143.8543  171.0628 F       1  UNL1       -0.2042
     21 C         143.1491  141.7077  169.6467 C.ar    1  UNL1        0.0335
     22 C         142.2605  140.8501  168.7954 C.ar    1  UNL1        0.0736
     23 C         142.7796  139.5611  168.2305 C.3     1  UNL1        0.4186
     24 F         143.2987  138.2720  167.6657 F       1  UNL1       -0.1659
     25 F         143.1586  140.2690  166.9635 F       1  UNL1       -0.1659
     26 F         142.4004  138.8532  169.4976 F       1  UNL1       -0.1659
@<TRIPOS>BOND
     1     2     3    1
     2     3     1    1
     3     1    14    1
     4    14    15    2
     5    15    16    1
     6    16    17   ar
     7    17    18   ar
     8    18    19   ar
     9    19    20    1
    10    19    21   ar
    11    21    22   ar
    12    22    23    1
    13    23    24    1
    14    23    25    1
    15    23    26    1
    16     3     4    1
    17     4     5    1
    18     5     6   ar
    19     6     7   ar
    20     7     8   ar
    21     8     9   ar
    22     9    10   ar
    23     9    11    1
    24    11    12    1
    25    12    13    1
    26    22    16   ar
    27    10     5   ar
    28    13     8    1
@<TRIPOS>MOLECULE
*****
 26 28 0 0 0
SMALL
GASTEIGER

@<TRIPOS>ATOM
      1 C         138.2758  138.9864  166.6399 C.3     1  UNL1        0.0992
      2 C         139.7323  137.7893  164.8523 C.3     1  UNL1        0.0902
      3 N         138.7322  138.8457  165.2180 N.3     1  UNL1       -0.2639
      4 C         138.1884  139.7615  164.1617 C.3     1  UNL1        0.0995
      5 C         138.6931  141.1703  164.0583 C.ar    1  UNL1       -0.0029
      6 C         137.8578  142.3057  164.5712 C.ar    1  UNL1        0.0004
      7 C         138.3624  143.7145  164.4678 C.ar    1  UNL1        0.0399
      8 C         139.7023  143.9878  163.8514 C.ar    1  UNL1        0.1764
      9 C         140.5376  142.8524  163.3384 C.ar    1  UNL1        0.1762
     10 C         140.0330  141.4436  163.4418 C.ar    1  UNL1        0.0373
     11 O         141.8085  143.4252  162.7847 O.3     1  UNL1       -0.4346
     12 C         141.7587  144.9146  162.9554 C.3     1  UNL1        0.4294
     13 O         140.4570  145.2623  163.6146 O.3     1  UNL1       -0.4346
     14 C         139.1288  139.7194  167.6324 C.2     1  UNL1       -0.0088
     15 C         140.0638  140.7961  167.1671 C.2     1  UNL1       -0.0032
     16 C         140.9168  141.5291  168.1595 C.ar    1  UNL1        0.0038
     17 C         140.3855  142.7520  168.8466 C.ar    1  UNL1        0.0022
     18 C         141.2385  143.4851  169.8390 C.ar    1  UNL1        0.0296
     19 C         142.6229  142.9952  170.1445 C.ar    1  UNL1        0.1401
     20 F         143.4759  143.7283  171.1369 F       1  UNL1       -0.2042
     21 C         143.1544  141.7723  169.4574 C.ar    1  UNL1        0.0335
     22 C         142.3013  141.0392  168.4650 C.ar    1  UNL1        0.0736
     23 C         142.8328  139.8163  167.7779 C.3     1  UNL1        0.4186
     24 F         143.3642  138.5933  167.0909 F       1  UNL1       -0.1659
     25 F         143.2267  140.6516  166.5959 F       1  UNL1       -0.1659
     26 F         142.4388  138.9811  168.9600 F       1  UNL1       -0.1659
@<TRIPOS>BOND
     1     2     3    1
     2     3     1    1
     3     1    14    1
     4    14    15    2
     5    15    16    1
     6    16    17   ar
     7    17    18   ar
     8    18    19   ar
     9    19    20    1
    10    19    21   ar
    11    21    22   ar
    12    22    23    1
    13    23    24    1
    14    23    25    1
    15    23    26    1
    16     3     4    1
    17     4     5    1
    18     5     6   ar
    19     6     7   ar
    20     7     8   ar
    21     8     9   ar
    22     9    10   ar
    23     9    11    1
    24    11    12    1
    25    12    13    1
    26    22    16   ar
    27    10     5   ar
    28    13     8    1
@<TRIPOS>MOLECULE
*****
 26 28 0 0 0
SMALL
GASTEIGER

@<TRIPOS>ATOM
      1 C         139.8480  143.6999  165.2550 C.3     1  UNL1        0.0992
      2 C         138.0815  143.8200  163.3537 C.3     1  UNL1        0.0902
      3 N         138.7316  143.0684  164.4772 N.3     1  UNL1       -0.2639
      4 C         138.2652  141.6853  164.8231 C.3     1  UNL1        0.0995
      5 C         138.9340  140.4923  164.2069 C.ar    1  UNL1       -0.0029
      6 C         138.4385  139.1111  164.5175 C.ar    1  UNL1        0.0004
      7 C         139.1073  137.9182  163.9014 C.ar    1  UNL1        0.0399
      8 C         140.2716  138.1065  162.9746 C.ar    1  UNL1        0.1764
      9 C         140.7671  139.4878  162.6640 C.ar    1  UNL1        0.1762
     10 C         140.0984  140.6807  163.2801 C.ar    1  UNL1        0.0373
     11 O         141.9268  139.3631  161.7208 O.3     1  UNL1       -0.4346
     12 C         142.1479  137.9047  161.4485 C.3     1  UNL1        0.4294
     13 O         141.1250  137.1281  162.2234 O.3     1  UNL1       -0.4346
     14 C         140.6993  142.8606  166.1609 C.2     1  UNL1       -0.0088
     15 C         140.3639  142.7539  167.6190 C.2     1  UNL1       -0.0032
     16 C         141.2153  141.9145  168.5250 C.ar    1  UNL1        0.0038
     17 C         142.4983  142.4661  169.0722 C.ar    1  UNL1        0.0022
     18 C         143.3496  141.6268  169.9782 C.ar    1  UNL1        0.0296
     19 C         142.9179  140.2358  170.3369 C.ar    1  UNL1        0.1401
     20 F         143.7693  139.3965  171.2429 F       1  UNL1       -0.2042
     21 C         141.6349  139.6841  169.7897 C.ar    1  UNL1        0.0335
     22 C         140.7836  140.5234  168.8837 C.ar    1  UNL1        0.0736
     23 C         139.5006  139.9717  168.3365 C.3     1  UNL1        0.4186
     24 F         138.2174  139.4200  167.7893 F       1  UNL1       -0.1659
     25 F         140.2327  139.4675  167.1283 F       1  UNL1       -0.1659
     26 F         138.7684  140.4761  169.5447 F       1  UNL1       -0.1659
@<TRIPOS>BOND
     1     2     3    1
     2     3     1    1
     3     1    14    1
     4    14    15    2
     5    15    16    1
     6    16    17   ar
     7    17    18   ar
     8    18    19   ar
     9    19    20    1
    10    19    21   ar
    11    21    22   ar
    12    22    23    1
    13    23    24    1
    14    23    25    1
    15    23    26    1
    16     3     4    1
    17     4     5    1
    18     5     6   ar
    19     6     7   ar
    20     7     8   ar
    21     8     9   ar
    22     9    10   ar
    23     9    11    1
    24    11    12    1
    25    12    13    1
    26    22    16   ar
    27    10     5   ar
    28    13     8    1
@<TRIPOS>MOLECULE
*****
 26 28 0 0 0
SMALL
GASTEIGER

@<TRIPOS>ATOM
      1 C         143.4056  138.1760  166.2129 C.3     1  UNL1        0.0992
      2 C         141.4471  137.3628  164.7120 C.3     1  UNL1        0.0902
      3 N         142.7430  138.1016  164.8692 N.3     1  UNL1       -0.2639
      4 C         143.3764  138.7659  163.6828 C.3     1  UNL1        0.0995
      5 C         143.6328  140.2438  163.6989 C.ar    1  UNL1       -0.0029
      6 C         145.0254  140.7611  163.9060 C.ar    1  UNL1        0.0004
      7 C         145.2818  142.2389  163.9222 C.ar    1  UNL1        0.0399
      8 C         144.1456  143.1994  163.7312 C.ar    1  UNL1        0.1764
      9 C         142.7530  142.6821  163.5241 C.ar    1  UNL1        0.1762
     10 C         142.4965  141.2043  163.5080 C.ar    1  UNL1        0.0373
     11 O         141.8395  143.8610  163.3641 O.3     1  UNL1       -0.4346
     12 C         142.6676  145.1070  163.4723 C.3     1  UNL1        0.4294
     13 O         144.0929  144.6981  163.6992 O.3     1  UNL1       -0.4346
     14 C         142.8172  139.0349  167.2927 C.2     1  UNL1       -0.0088
     15 C         141.5938  139.8570  167.0141 C.2     1  UNL1       -0.0032
     16 C         141.0054  140.7159  168.0939 C.ar    1  UNL1        0.0038
     17 C         139.7967  140.2483  168.8490 C.ar    1  UNL1        0.0022
     18 C         139.2082  141.1072  169.9288 C.ar    1  UNL1        0.0296
     19 C         139.8285  142.4337  170.2536 C.ar    1  UNL1        0.1401
     20 F         139.2401  143.2926  171.3335 F       1  UNL1       -0.2042
     21 C         141.0373  142.9014  169.4985 C.ar    1  UNL1        0.0335
     22 C         141.6258  142.0425  168.4187 C.ar    1  UNL1        0.0736
     23 C         142.8345  142.5101  167.6636 C.3     1  UNL1        0.4186
     24 F         144.0434  142.9778  166.9085 F       1  UNL1       -0.1659
     25 F         141.9642  142.8794  166.4990 F       1  UNL1       -0.1659
     26 F         143.7048  142.1409  168.8282 F       1  UNL1       -0.1659
@<TRIPOS>BOND
     1     2     3    1
     2     3     1    1
     3     1    14    1
     4    14    15    2
     5    15    16    1
     6    16    17   ar
     7    17    18   ar
     8    18    19   ar
     9    19    20    1
    10    19    21   ar
    11    21    22   ar
    12    22    23    1
    13    23    24    1
    14    23    25    1
    15    23    26    1
    16     3     4    1
    17     4     5    1
    18     5     6   ar
    19     6     7   ar
    20     7     8   ar
    21     8     9   ar
    22     9    10   ar
    23     9    11    1
    24    11    12    1
    25    12    13    1
    26    22    16   ar
    27    10     5   ar
    28    13     8    1
@<TRIPOS>MOLECULE
*****
 26 28 0 0 0
SMALL
GASTEIGER

@<TRIPOS>ATOM
      1 C         138.7761  138.5798  164.2538 C.3     1  UNL1        0.0992
      2 C         138.1099  138.5164  161.7434 C.3     1  UNL1        0.0902
      3 N         138.1341  139.2284  163.0634 N.3     1  UNL1       -0.2639
      4 C         137.5161  140.5891  163.1930 C.3     1  UNL1        0.0995
      5 C         138.3568  141.8162  162.9987 C.ar    1  UNL1       -0.0029
      6 C         137.7633  143.1752  163.2236 C.ar    1  UNL1        0.0004
      7 C         138.6039  144.4022  163.0293 C.ar    1  UNL1        0.0399
      8 C         140.0380  144.2702  162.6100 C.ar    1  UNL1        0.1764
      9 C         140.6316  142.9111  162.3851 C.ar    1  UNL1        0.1762
     10 C         139.7910  141.6841  162.5794 C.ar    1  UNL1        0.0373
     11 O         142.0640  143.0923  161.9786 O.3     1  UNL1       -0.4346
     12 C         142.3558  144.5635  161.9524 C.3     1  UNL1        0.4294
     13 O         141.1037  145.2914  162.3426 O.3     1  UNL1       -0.4346
     14 C         138.7530  139.2680  165.5864 C.2     1  UNL1       -0.0088
     15 C         139.9485  140.0469  166.0492 C.2     1  UNL1       -0.0032
     16 C         139.9253  140.7351  167.3818 C.ar    1  UNL1        0.0038
     17 C         139.2726  140.0710  168.5577 C.ar    1  UNL1        0.0022
     18 C         139.2495  140.7593  169.8903 C.ar    1  UNL1        0.0296
     19 C         139.8790  142.1117  170.0469 C.ar    1  UNL1        0.1401
     20 F         139.8559  142.8000  171.3795 F       1  UNL1       -0.2042
     21 C         140.5317  142.7759  168.8710 C.ar    1  UNL1        0.0335
     22 C         140.5549  142.0877  167.5384 C.ar    1  UNL1        0.0736
     23 C         141.2076  142.7519  166.3625 C.3     1  UNL1        0.4186
     24 F         141.8604  143.4161  165.1865 F       1  UNL1       -0.1659
     25 F         139.8946  143.3697  165.9827 F       1  UNL1       -0.1659
     26 F         142.5206  142.1339  166.7424 F       1  UNL1       -0.1659
@<TRIPOS>BOND
     1     2     3    1
     2     3     1    1
     3     1    14    1
     4    14    15    2
     5    15    16    1
     6    16    17   ar
     7    17    18   ar
     8    18    19   ar
     9    19    20    1
    10    19    21   ar
    11    21    22   ar
    12    22    23    1
    13    23    24    1
    14    23    25    1
    15    23    26    1
    16     3     4    1
    17     4     5    1
    18     5     6   ar
    19     6     7   ar
    20     7     8   ar
    21     8     9   ar
    22     9    10   ar
    23     9    11    1
    24    11    12    1
    25    12    13    1
    26    22    16   ar
    27    10     5   ar
    28    13     8    1
@<TRIPOS>MOLECULE
*****
 26 28 0 0 0
SMALL
GASTEIGER

@<TRIPOS>ATOM
      1 C         138.0475  140.0489  165.0237 C.3     1  UNL1        0.0992
      2 C         137.6757  138.6082  167.1536 C.3     1  UNL1        0.0902
      3 N         138.2217  138.7561  165.7643 N.3     1  UNL1       -0.2639
      4 C         138.9420  137.6114  165.1157 C.3     1  UNL1        0.0995
      5 C         140.2616  137.8415  164.4404 C.ar    1  UNL1       -0.0029
      6 C         141.4439  138.3003  165.2412 C.ar    1  UNL1        0.0004
      7 C         142.7634  138.5304  164.5660 C.ar    1  UNL1        0.0399
      8 C         142.9005  138.3016  163.0899 C.ar    1  UNL1        0.1764
      9 C         141.7181  137.8427  162.2890 C.ar    1  UNL1        0.1762
     10 C         140.3986  137.6126  162.9642 C.ar    1  UNL1        0.0373
     11 O         142.1525  137.7016  160.8603 O.3     1  UNL1       -0.4346
     12 C         143.6034  138.0733  160.7781 C.3     1  UNL1        0.4294
     13 O         144.0657  138.4441  162.1561 O.3     1  UNL1       -0.4346
     14 C         139.1022  141.1118  165.1119 C.2     1  UNL1       -0.0088
     15 C         139.8615  141.5186  163.8839 C.2     1  UNL1       -0.0032
     16 C         140.9162  142.5815  163.9720 C.ar    1  UNL1        0.0038
     17 C         142.3295  142.2096  164.3097 C.ar    1  UNL1        0.0022
     18 C         143.3843  143.2725  164.3978 C.ar    1  UNL1        0.0296
     19 C         143.0257  144.7074  164.1483 C.ar    1  UNL1        0.1401
     20 F         144.0804  145.7704  164.2364 F       1  UNL1       -0.2042
     21 C         141.6123  145.0795  163.8106 C.ar    1  UNL1        0.0335
     22 C         140.5576  144.0166  163.7224 C.ar    1  UNL1        0.0736
     23 C         139.1443  144.3886  163.3848 C.3     1  UNL1        0.4186
     24 F         137.7309  144.7606  163.0470 F       1  UNL1       -0.1659
     25 F         138.8732  144.6727  164.8324 F       1  UNL1       -0.1659
     26 F         139.4154  144.1044  161.9370 F       1  UNL1       -0.1659
@<TRIPOS>BOND
     1     2     3    1
     2     3     1    1
     3     1    14    1
     4    14    15    2
     5    15    16    1
     6    16    17   ar
     7    17    18   ar
     8    18    19   ar
     9    19    20    1
    10    19    21   ar
    11    21    22   ar
    12    22    23    1
    13    23    24    1
    14    23    25    1
    15    23    26    1
    16     3     4    1
    17     4     5    1
    18     5     6   ar
    19     6     7   ar
    20     7     8   ar
    21     8     9   ar
    22     9    10   ar
    23     9    11    1
    24    11    12    1
    25    12    13    1
    26    22    16   ar
    27    10     5   ar
    28    13     8    1
@<TRIPOS>MOLECULE
*****
 26 28 0 0 0
SMALL
GASTEIGER

@<TRIPOS>ATOM
      1 C         138.1209  140.1905  164.6353 C.3     1  UNL1        0.0992
      2 C         138.8030  137.6892  164.8038 C.3     1  UNL1        0.0902
      3 N         138.4270  138.9807  165.4676 N.3     1  UNL1       -0.2639
      4 C         138.3570  139.0624  166.9638 C.3     1  UNL1        0.0995
      5 C         139.4793  139.6933  167.7338 C.ar    1  UNL1       -0.0029
      6 C         140.8615  139.7272  167.1525 C.ar    1  UNL1        0.0004
      7 C         141.9837  140.3581  167.9224 C.ar    1  UNL1        0.0399
      8 C         141.7235  140.9550  169.2736 C.ar    1  UNL1        0.1764
      9 C         140.3411  140.9212  169.8550 C.ar    1  UNL1        0.1762
     10 C         139.2190  140.2903  169.0851 C.ar    1  UNL1        0.0373
     11 O         140.3872  141.5849  171.1993 O.3     1  UNL1       -0.4346
     12 C         141.7981  142.0290  171.4489 C.3     1  UNL1        0.4294
     13 O         142.6239  141.6397  170.2587 O.3     1  UNL1       -0.4346
     14 C         139.2310  141.0978  164.1942 C.2     1  UNL1       -0.0088
     15 C         139.6795  142.2206  165.0820 C.2     1  UNL1       -0.0032
     16 C         140.7895  143.1279  164.6409 C.ar    1  UNL1        0.0038
     17 C         142.2039  142.8336  165.0443 C.ar    1  UNL1        0.0022
     18 C         143.3139  143.7410  164.6032 C.ar    1  UNL1        0.0296
     19 C         143.0096  144.9426  163.7587 C.ar    1  UNL1        0.1401
     20 F         144.1196  145.8500  163.3176 F       1  UNL1       -0.2042
     21 C         141.5952  145.2370  163.3552 C.ar    1  UNL1        0.0335
     22 C         140.4851  144.3297  163.7963 C.ar    1  UNL1        0.0736
     23 C         139.0707  144.6240  163.3928 C.3     1  UNL1        0.4186
     24 F         137.6562  144.9184  162.9894 F       1  UNL1       -0.1659
     25 F         139.2934  143.9111  162.0920 F       1  UNL1       -0.1659
     26 F         138.8481  145.3369  164.6937 F       1  UNL1       -0.1659
@<TRIPOS>BOND
     1     2     3    1
     2     3     1    1
     3     1    14    1
     4    14    15    2
     5    15    16    1
     6    16    17   ar
     7    17    18   ar
     8    18    19   ar
     9    19    20    1
    10    19    21   ar
    11    21    22   ar
    12    22    23    1
    13    23    24    1
    14    23    25    1
    15    23    26    1
    16     3     4    1
    17     4     5    1
    18     5     6   ar
    19     6     7   ar
    20     7     8   ar
    21     8     9   ar
    22     9    10   ar
    23     9    11    1
    24    11    12    1
    25    12    13    1
    26    22    16   ar
    27    10     5   ar
    28    13     8    1
@<TRIPOS>MOLECULE
*****
 26 28 0 0 0
SMALL
GASTEIGER

@<TRIPOS>ATOM
      1 C         138.4845  140.1678  165.4063 C.3     1  UNL1        0.0992
      2 C         138.7773  137.5881  165.3096 C.3     1  UNL1        0.0902
      3 N         139.0285  138.9468  164.7257 N.3     1  UNL1       -0.2639
      4 C         139.8237  139.0844  163.4613 C.3     1  UNL1        0.0995
      5 C         141.2800  139.4384  163.5259 C.ar    1  UNL1       -0.0029
      6 C         142.2847  138.4066  163.9452 C.ar    1  UNL1        0.0004
      7 C         143.7409  138.7606  164.0098 C.ar    1  UNL1        0.0399
      8 C         144.1924  140.1463  163.6552 C.ar    1  UNL1        0.1764
      9 C         143.1876  141.1782  163.2359 C.ar    1  UNL1        0.1762
     10 C         141.7314  140.8243  163.1713 C.ar    1  UNL1        0.0373
     11 O         143.9246  142.4524  162.9471 O.3     1  UNL1       -0.4346
     12 C         145.3848  142.2080  163.1879 C.3     1  UNL1        0.4294
     13 O         145.5503  140.7828  163.6255 O.3     1  UNL1       -0.4346
     14 C         139.3788  141.0054  166.2715 C.2     1  UNL1       -0.0088
     15 C         139.9331  140.4405  167.5457 C.2     1  UNL1       -0.0032
     16 C         140.8275  141.2782  168.4109 C.ar    1  UNL1        0.0038
     17 C         140.2920  142.5169  169.0655 C.ar    1  UNL1        0.0022
     18 C         141.1863  143.3545  169.9307 C.ar    1  UNL1        0.0296
     19 C         142.6163  142.9533  170.1413 C.ar    1  UNL1        0.1401
     20 F         143.5106  143.7910  171.0065 F       1  UNL1       -0.2042
     21 C         143.1519  141.7146  169.4866 C.ar    1  UNL1        0.0335
     22 C         142.2575  140.8770  168.6214 C.ar    1  UNL1        0.0736
     23 C         142.7931  139.6382  167.9668 C.3     1  UNL1        0.4186
     24 F         143.3287  138.3994  167.3121 F       1  UNL1       -0.1659
     25 F         142.5133  138.8569  169.2163 F       1  UNL1       -0.1659
     26 F         143.0729  140.4195  166.7172 F       1  UNL1       -0.1659
@<TRIPOS>BOND
     1     2     3    1
     2     3     1    1
     3     1    14    1
     4    14    15    2
     5    15    16    1
     6    16    17   ar
     7    17    18   ar
     8    18    19   ar
     9    19    20    1
    10    19    21   ar
    11    21    22   ar
    12    22    23    1
    13    23    24    1
    14    23    25    1
    15    23    26    1
    16     3     4    1
    17     4     5    1
    18     5     6   ar
    19     6     7   ar
    20     7     8   ar
    21     8     9   ar
    22     9    10   ar
    23     9    11    1
    24    11    12    1
    25    12    13    1
    26    22    16   ar
    27    10     5   ar
    28    13     8    1
@<TRIPOS>MOLECULE
*****
 26 28 0 0 0
SMALL
GASTEIGER

@<TRIPOS>ATOM
      1 C         139.8206  137.5901  162.6390 C.3     1  UNL1        0.0992
      2 C         139.4270  138.5098  160.2413 C.3     1  UNL1        0.0902
      3 N         139.0439  138.4545  161.6905 N.3     1  UNL1       -0.2639
      4 C         137.8842  139.2634  162.1911 C.3     1  UNL1        0.0995
      5 C         138.0934  140.6826  162.6297 C.ar    1  UNL1       -0.0029
      6 C         137.8279  141.0747  164.0529 C.ar    1  UNL1        0.0004
      7 C         138.0371  142.4937  164.4915 C.ar    1  UNL1        0.0399
      8 C         138.5119  143.5208  163.5068 C.ar    1  UNL1        0.1764
      9 C         138.7775  143.1288  162.0835 C.ar    1  UNL1        0.1762
     10 C         138.5683  141.7097  161.6449 C.ar    1  UNL1        0.0373
     11 O         139.2351  144.3508  161.3438 O.3     1  UNL1       -0.4346
     12 C         139.2524  145.4981  162.3099 C.3     1  UNL1        0.4294
     13 O         138.8054  144.9851  163.6467 O.3     1  UNL1       -0.4346
     14 C         139.8972  137.9525  164.0925 C.2     1  UNL1       -0.0088
     15 C         140.8730  138.9933  164.5556 C.2     1  UNL1       -0.0032
     16 C         140.9497  139.3556  166.0091 C.ar    1  UNL1        0.0038
     17 C         139.6944  139.6473  166.7766 C.ar    1  UNL1        0.0022
     18 C         139.7710  140.0097  168.2302 C.ar    1  UNL1        0.0296
     19 C         141.1030  140.0804  168.9163 C.ar    1  UNL1        0.1401
     20 F         141.1797  140.4427  170.3699 F       1  UNL1       -0.2042
     21 C         142.3584  139.7887  168.1489 C.ar    1  UNL1        0.0335
     22 C         142.2817  139.4263  166.6953 C.ar    1  UNL1        0.0736
     23 C         143.5371  139.1346  165.9279 C.3     1  UNL1        0.4186
     24 F         144.7925  138.8428  165.1604 F       1  UNL1       -0.1659
     25 F         143.6561  140.5866  165.5706 F       1  UNL1       -0.1659
     26 F         143.4180  137.6826  166.2851 F       1  UNL1       -0.1659
@<TRIPOS>BOND
     1     2     3    1
     2     3     1    1
     3     1    14    1
     4    14    15    2
     5    15    16    1
     6    16    17   ar
     7    17    18   ar
     8    18    19   ar
     9    19    20    1
    10    19    21   ar
    11    21    22   ar
    12    22    23    1
    13    23    24    1
    14    23    25    1
    15    23    26    1
    16     3     4    1
    17     4     5    1
    18     5     6   ar
    19     6     7   ar
    20     7     8   ar
    21     8     9   ar
    22     9    10   ar
    23     9    11    1
    24    11    12    1
    25    12    13    1
    26    22    16   ar
    27    10     5   ar
    28    13     8    1
