@<TRIPOS>MOLECULE
*****
 36 39 0 0 0
SMALL
GASTEIGER

@<TRIPOS>ATOM
      1 C         142.1521  140.7560  163.8503 C.3     1  UNL1        0.2551
      2 N         142.2022  141.3171  165.2405 N.2     1  UNL1       -0.2434
      3 C         141.2927  141.0300  166.3982 C.2     1  UNL1        0.0795
      4 C         140.1084  140.1108  166.4518 C.ar    1  UNL1        0.0310
      5 C         139.4721  140.1155  167.8100 C.ar    1  UNL1        0.0027
      6 C         138.2685  139.2612  168.0772 C.ar    1  UNL1        0.0001
      7 C         137.7013  138.4022  166.9862 C.ar    1  UNL1        0.0013
      8 C         138.3377  138.3975  165.6279 C.ar    1  UNL1        0.0150
      9 C         139.5413  139.2518  165.3607 C.ar    1  UNL1        0.0556
     10 N         140.0182  139.0998  163.9467 N.am    1  UNL1       -0.2474
     11 C         141.1801  139.7692  163.2744 C.2     1  UNL1        0.2714
     12 O         141.3990  139.4034  161.8363 O.2     1  UNL1       -0.2705
     13 C         141.6093  141.7583  167.6708 C.ar    1  UNL1        0.0174
     14 C         142.8885  141.4725  168.4002 C.ar    1  UNL1        0.0015
     15 C         143.2050  142.2008  169.6727 C.ar    1  UNL1        0.0000
     16 C         142.2424  143.2149  170.2158 C.ar    1  UNL1        0.0000
     17 C         140.9633  143.5007  169.4865 C.ar    1  UNL1        0.0000
     18 C         140.6466  142.7724  168.2140 C.ar    1  UNL1        0.0015
     19 O         141.5537  142.9958  161.9463 O.2     1  UNL1       -0.2747
     20 C         142.9153  142.3664  161.9598 C.2     1  UNL1        0.2285
     21 N         143.2144  141.2465  162.9118 N.am    1  UNL1       -0.2795
     22 H         144.1080  140.8334  162.9206 H       1  UNL1        0.1516
     23 C         143.9776  142.8570  161.0213 C.3     1  UNL1        0.1114
     24 C         144.2009  142.1608  159.7115 C.ar    1  UNL1       -0.0114
     25 C         143.3952  140.9450  159.3614 C.ar    1  UNL1        0.0077
     26 C         143.6185  140.2489  158.0515 C.ar    1  UNL1        0.0582
     27 CL        142.8128  139.0331  157.7015 Cl      1  UNL1       -0.0822
     28 C         144.6475  140.7686  157.0919 C.ar    1  UNL1        0.0228
     29 C         145.4532  141.9845  157.4420 C.ar    1  UNL1        0.0582
     30 CL        146.4823  142.5043  156.4823 Cl      1  UNL1       -0.0822
     31 C         145.2299  142.6806  158.7518 C.ar    1  UNL1        0.0077
     32 C         139.2289  138.1532  163.0918 C.3     1  UNL1        0.2017
     33 C         138.2471  138.6869  162.0912 C.3     1  UNL1        0.4160
     34 F         137.2653  139.2207  161.0906 F       1  UNL1       -0.1682
     35 F         137.5569  139.8022  162.8192 F       1  UNL1       -0.1682
     36 F         138.7136  137.6707  161.0914 F       1  UNL1       -0.1682
@<TRIPOS>BOND
     1    19    20    2
     2    20    23    1
     3    23    24    1
     4    24    25   ar
     5    25    26   ar
     6    26    27    1
     7    26    28   ar
     8    28    29   ar
     9    29    30    1
    10    29    31   ar
    11    20    21   am
    12     1    21    1
    13     1     2    1
    14     2     3    2
    15     3    13    1
    16    13    14   ar
    17    14    15   ar
    18    15    16   ar
    19    16    17   ar
    20    17    18   ar
    21     3     4    1
    22     4     5   ar
    23     5     6   ar
    24     6     7   ar
    25     7     8   ar
    26     8     9   ar
    27     9    10    1
    28    10    32    1
    29    32    33    1
    30    33    34    1
    31    33    35    1
    32    33    36    1
    33    10    11   am
    34    11    12    2
    35    31    24   ar
    36    11     1    1
    37    18    13   ar
    38     9     4   ar
    39    21    22    1
@<TRIPOS>MOLECULE
*****
 36 39 0 0 0
SMALL
GASTEIGER

@<TRIPOS>ATOM
      1 C         142.1407  140.7436  163.8163 C.3     1  UNL1        0.2551
      2 N         142.1845  141.3084  165.2053 N.2     1  UNL1       -0.2434
      3 C         141.2749  141.0177  166.3620 C.2     1  UNL1        0.0795
      4 C         140.0970  140.0905  166.4157 C.ar    1  UNL1        0.0310
      5 C         139.4582  140.0940  167.7729 C.ar    1  UNL1        0.0027
      6 C         138.2601  139.2320  168.0400 C.ar    1  UNL1        0.0001
      7 C         137.7008  138.3664  166.9501 C.ar    1  UNL1        0.0013
      8 C         138.3396  138.3629  165.5929 C.ar    1  UNL1        0.0150
      9 C         139.5377  139.2249  165.3258 C.ar    1  UNL1        0.0556
     10 N         140.0183  139.0728  163.9130 N.am    1  UNL1       -0.2474
     11 C         141.1767  139.7486  163.2411 C.2     1  UNL1        0.2714
     12 O         141.4007  139.3810  161.8043 O.2     1  UNL1       -0.2705
     13 C         141.5841  141.7512  167.6334 C.ar    1  UNL1        0.0174
     14 C         140.6074  142.7502  168.1795 C.ar    1  UNL1        0.0015
     15 C         140.9166  143.4837  169.4509 C.ar    1  UNL1        0.0000
     16 C         142.2026  143.2184  170.1761 C.ar    1  UNL1        0.0000
     17 C         143.1793  142.2196  169.6300 C.ar    1  UNL1        0.0000
     18 C         142.8701  141.4860  168.3587 C.ar    1  UNL1        0.0015
     19 O         141.5028  142.9088  161.8402 O.2     1  UNL1       -0.2747
     20 C         142.8824  142.3218  161.8904 C.2     1  UNL1        0.2285
     21 N         143.2013  141.2392  162.8785 N.am    1  UNL1       -0.2795
     22 H         144.1067  140.8540  162.9115 H       1  UNL1        0.1516
     23 C         143.9429  142.8175  160.9526 C.3     1  UNL1        0.1114
     24 C         144.1891  142.1059  159.6553 C.ar    1  UNL1       -0.0114
     25 C         145.1850  142.6538  158.6765 C.ar    1  UNL1        0.0077
     26 C         145.4311  141.9421  157.3792 C.ar    1  UNL1        0.0582
     27 CL        146.4270  142.4900  156.4004 Cl      1  UNL1       -0.0822
     28 C         144.6814  140.6826  157.0607 C.ar    1  UNL1        0.0228
     29 C         143.6855  140.1347  158.0395 C.ar    1  UNL1        0.0582
     30 CL        142.9357  138.8752  157.7210 Cl      1  UNL1       -0.0822
     31 C         143.4394  140.8463  159.3368 C.ar    1  UNL1        0.0077
     32 C         139.2370  138.1186  163.0590 C.3     1  UNL1        0.2017
     33 C         138.2581  138.6433  162.0508 C.3     1  UNL1        0.4160
     34 F         137.2792  139.1680  161.0427 F       1  UNL1       -0.1682
     35 F         137.5406  139.7412  162.7788 F       1  UNL1       -0.1682
     36 F         138.7534  137.6427  161.0491 F       1  UNL1       -0.1682
@<TRIPOS>BOND
     1    19    20    2
     2    20    23    1
     3    23    24    1
     4    24    25   ar
     5    25    26   ar
     6    26    27    1
     7    26    28   ar
     8    28    29   ar
     9    29    30    1
    10    29    31   ar
    11    20    21   am
    12     1    21    1
    13     1     2    1
    14     2     3    2
    15     3    13    1
    16    13    14   ar
    17    14    15   ar
    18    15    16   ar
    19    16    17   ar
    20    17    18   ar
    21     3     4    1
    22     4     5   ar
    23     5     6   ar
    24     6     7   ar
    25     7     8   ar
    26     8     9   ar
    27     9    10    1
    28    10    32    1
    29    32    33    1
    30    33    34    1
    31    33    35    1
    32    33    36    1
    33    10    11   am
    34    11    12    2
    35    31    24   ar
    36    11     1    1
    37    18    13   ar
    38     9     4   ar
    39    21    22    1
@<TRIPOS>MOLECULE
*****
 36 39 0 0 0
SMALL
GASTEIGER

@<TRIPOS>ATOM
      1 C         140.6459  142.4959  163.6699 C.3     1  UNL1        0.2551
      2 N         141.0874  142.6761  165.0920 N.2     1  UNL1       -0.2434
      3 C         140.6438  141.9237  166.3115 C.2     1  UNL1        0.0795
      4 C         139.6490  140.8053  166.4100 C.ar    1  UNL1        0.0310
      5 C         139.4958  140.3311  167.8248 C.ar    1  UNL1        0.0027
      6 C         138.5459  139.2147  168.1429 C.ar    1  UNL1        0.0001
      7 C         137.7491  138.5725  167.0462 C.ar    1  UNL1        0.0013
      8 C         137.9023  139.0467  165.6315 C.ar    1  UNL1        0.0150
      9 C         138.8522  140.1630  165.3133 C.ar    1  UNL1        0.0556
     10 N         138.8535  140.4806  163.8473 N.am    1  UNL1       -0.2474
     11 C         139.6517  141.5188  163.1159 C.2     1  UNL1        0.2714
     12 O         139.4258  141.5892  161.6347 O.2     1  UNL1       -0.2705
     13 C         141.2788  142.3454  167.6033 C.ar    1  UNL1        0.0174
     14 C         142.6988  141.9640  167.9007 C.ar    1  UNL1        0.0015
     15 C         143.3339  142.3858  169.1925 C.ar    1  UNL1        0.0000
     16 C         142.5490  143.1890  170.1870 C.ar    1  UNL1        0.0000
     17 C         141.1292  143.5704  169.8896 C.ar    1  UNL1        0.0000
     18 C         140.4940  143.1487  168.5978 C.ar    1  UNL1        0.0015
     19 O         139.0995  144.8189  162.5688 O.2     1  UNL1       -0.2747
     20 C         140.5096  144.5757  162.1188 C.2     1  UNL1        0.2285
     21 N         141.2828  143.4142  162.6693 N.am    1  UNL1       -0.2795
     22 H         142.2083  143.2545  162.3740 H       1  UNL1        0.1516
     23 C         141.1466  145.4940  161.1183 C.3     1  UNL1        0.1114
     24 C         141.2308  145.0895  159.6763 C.ar    1  UNL1       -0.0114
     25 C         142.2135  144.0404  159.2478 C.ar    1  UNL1        0.0077
     26 C         142.2978  143.6359  157.8058 C.ar    1  UNL1        0.0582
     27 CL        143.2804  142.5867  157.3773 Cl      1  UNL1       -0.0822
     28 C         141.3993  144.2806  156.7923 C.ar    1  UNL1        0.0228
     29 C         140.4166  145.3298  157.2208 C.ar    1  UNL1        0.0582
     30 CL        139.5182  145.9745  156.2073 Cl      1  UNL1       -0.0822
     31 C         140.3324  145.7342  158.6628 C.ar    1  UNL1        0.0077
     32 C         137.9349  139.6501  163.0008 C.3     1  UNL1        0.2017
     33 C         138.4995  138.6072  162.0823 C.3     1  UNL1        0.4160
     34 F         139.0640  137.5643  161.1639 F       1  UNL1       -0.1682
     35 F         139.5132  137.8917  162.9251 F       1  UNL1       -0.1682
     36 F         137.5955  139.0846  160.9846 F       1  UNL1       -0.1682
@<TRIPOS>BOND
     1    19    20    2
     2    20    23    1
     3    23    24    1
     4    24    25   ar
     5    25    26   ar
     6    26    27    1
     7    26    28   ar
     8    28    29   ar
     9    29    30    1
    10    29    31   ar
    11    20    21   am
    12     1    21    1
    13     1     2    1
    14     2     3    2
    15     3    13    1
    16    13    14   ar
    17    14    15   ar
    18    15    16   ar
    19    16    17   ar
    20    17    18   ar
    21     3     4    1
    22     4     5   ar
    23     5     6   ar
    24     6     7   ar
    25     7     8   ar
    26     8     9   ar
    27     9    10    1
    28    10    32    1
    29    32    33    1
    30    33    34    1
    31    33    35    1
    32    33    36    1
    33    10    11   am
    34    11    12    2
    35    31    24   ar
    36    11     1    1
    37    18    13   ar
    38     9     4   ar
    39    21    22    1
@<TRIPOS>MOLECULE
*****
 36 39 0 0 0
SMALL
GASTEIGER

@<TRIPOS>ATOM
      1 C         142.8037  138.3948  160.4424 C.3     1  UNL1        0.2551
      2 N         142.5780  137.5937  159.1945 N.2     1  UNL1       -0.2434
      3 C         142.8670  137.9756  157.7730 C.2     1  UNL1        0.0795
      4 C         143.4531  139.2528  157.2483 C.ar    1  UNL1        0.0310
      5 C         143.5763  139.2259  155.7537 C.ar    1  UNL1        0.0027
      6 C         144.1413  140.4098  155.0263 C.ar    1  UNL1        0.0001
      7 C         144.5831  141.6206  155.7936 C.ar    1  UNL1        0.0013
      8 C         144.4600  141.6475  157.2883 C.ar    1  UNL1        0.0150
      9 C         143.8950  140.4636  158.0156 C.ar    1  UNL1        0.0556
     10 N         143.8598  140.6962  159.4971 N.am    1  UNL1       -0.2474
     11 C         143.3742  139.7755  160.5772 C.2     1  UNL1        0.2714
     12 O         143.4719  140.3056  161.9769 O.2     1  UNL1       -0.2705
     13 C         142.5246  136.9438  156.7394 C.ar    1  UNL1        0.0174
     14 C         141.1589  136.9278  156.1194 C.ar    1  UNL1        0.0015
     15 C         140.8165  135.8960  155.0858 C.ar    1  UNL1        0.0000
     16 C         141.8399  134.8803  154.6723 C.ar    1  UNL1        0.0000
     17 C         143.2056  134.8963  155.2923 C.ar    1  UNL1        0.0000
     18 C         143.5480  135.9280  156.3259 C.ar    1  UNL1        0.0015
     19 O         139.9867  138.6311  161.4469 O.2     1  UNL1       -0.2747
     20 C         140.9979  137.8449  162.2276 C.2     1  UNL1        0.2285
     21 N         142.4064  137.7267  161.7253 N.am    1  UNL1       -0.2795
     22 H         143.0700  137.2107  162.2377 H       1  UNL1        0.1516
     23 C         140.6006  137.1768  163.5105 C.3     1  UNL1        0.1114
     24 C         140.0410  137.9920  164.6385 C.ar    1  UNL1       -0.0114
     25 C         140.6843  139.2939  165.0143 C.ar    1  UNL1        0.0077
     26 C         140.1246  140.1090  166.1423 C.ar    1  UNL1        0.0582
     27 CL        140.7679  141.4109  166.5180 Cl      1  UNL1       -0.0822
     28 C         138.9216  139.6222  166.8946 C.ar    1  UNL1        0.0228
     29 C         138.2784  138.3202  166.5188 C.ar    1  UNL1        0.0582
     30 CL        137.0754  137.8334  167.2711 Cl      1  UNL1       -0.0822
     31 C         138.8380  137.5052  165.3908 C.ar    1  UNL1        0.0077
     32 C         144.3790  142.0252  159.9597 C.3     1  UNL1        0.2017
     33 C         143.4216  143.0911  160.4041 C.3     1  UNL1        0.4160
     34 F         142.4643  144.1569  160.8484 F       1  UNL1       -0.1682
     35 F         142.2849  142.9865  159.4310 F       1  UNL1       -0.1682
     36 F         144.3545  143.4647  161.5177 F       1  UNL1       -0.1682
@<TRIPOS>BOND
     1    19    20    2
     2    20    23    1
     3    23    24    1
     4    24    25   ar
     5    25    26   ar
     6    26    27    1
     7    26    28   ar
     8    28    29   ar
     9    29    30    1
    10    29    31   ar
    11    20    21   am
    12     1    21    1
    13     1     2    1
    14     2     3    2
    15     3    13    1
    16    13    14   ar
    17    14    15   ar
    18    15    16   ar
    19    16    17   ar
    20    17    18   ar
    21     3     4    1
    22     4     5   ar
    23     5     6   ar
    24     6     7   ar
    25     7     8   ar
    26     8     9   ar
    27     9    10    1
    28    10    32    1
    29    32    33    1
    30    33    34    1
    31    33    35    1
    32    33    36    1
    33    10    11   am
    34    11    12    2
    35    31    24   ar
    36    11     1    1
    37    18    13   ar
    38     9     4   ar
    39    21    22    1
@<TRIPOS>MOLECULE
*****
 36 39 0 0 0
SMALL
GASTEIGER

@<TRIPOS>ATOM
      1 C         142.8665  142.3640  162.3940 C.3     1  UNL1        0.2551
      2 N         143.4665  142.0054  161.0668 N.2     1  UNL1       -0.2434
      3 C         143.1534  142.5742  159.7146 C.2     1  UNL1        0.0795
      4 C         142.1629  143.6420  159.3556 C.ar    1  UNL1        0.0310
      5 C         142.1635  143.9166  157.8810 C.ar    1  UNL1        0.0027
      6 C         141.2422  144.9540  157.3109 C.ar    1  UNL1        0.0001
      7 C         140.3202  145.7167  158.2155 C.ar    1  UNL1        0.0013
      8 C         140.3196  145.4421  159.6901 C.ar    1  UNL1        0.0150
      9 C         141.2410  144.4047  160.2602 C.ar    1  UNL1        0.0556
     10 N         141.0818  144.2880  161.7471 N.am    1  UNL1       -0.2474
     11 C         141.8052  143.3798  162.6968 C.2     1  UNL1        0.2714
     12 O         141.4158  143.5039  164.1400 O.2     1  UNL1       -0.2705
     13 C         143.9339  141.9992  158.5700 C.ar    1  UNL1        0.0174
     14 C         145.2224  142.6386  158.1446 C.ar    1  UNL1        0.0015
     15 C         146.0030  142.0636  157.0000 C.ar    1  UNL1        0.0000
     16 C         145.4950  140.8491  156.2808 C.ar    1  UNL1        0.0000
     17 C         144.2067  140.2097  156.7063 C.ar    1  UNL1        0.0000
     18 C         143.4260  140.7847  157.8508 C.ar    1  UNL1        0.0015
     19 O         141.4357  139.9158  163.3734 O.2     1  UNL1       -0.2747
     20 C         142.6827  140.3824  164.0642 C.2     1  UNL1        0.2285
     21 N         143.3981  141.6065  163.5745 N.am    1  UNL1       -0.2795
     22 H         144.2166  141.9128  164.0279 H       1  UNL1        0.1516
     23 C         143.2143  139.6250  165.2447 C.3     1  UNL1        0.1114
     24 C         142.7210  139.9444  166.6248 C.ar    1  UNL1       -0.0114
     25 C         141.9832  141.2252  166.8798 C.ar    1  UNL1        0.0077
     26 C         141.4898  141.5447  168.2599 C.ar    1  UNL1        0.0582
     27 CL        140.7521  142.8255  168.5149 Cl      1  UNL1       -0.0822
     28 C         141.7342  140.5832  169.3850 C.ar    1  UNL1        0.0228
     29 C         142.4721  139.3023  169.1300 C.ar    1  UNL1        0.0582
     30 CL        142.7165  138.3408  170.2550 Cl      1  UNL1       -0.0822
     31 C         142.9654  138.9829  167.7499 C.ar    1  UNL1        0.0077
     32 C         140.0646  145.2002  162.3663 C.3     1  UNL1        0.2017
     33 C         138.7648  144.6440  162.8675 C.3     1  UNL1        0.4160
     34 F         137.4650  144.0878  163.3687 F       1  UNL1       -0.1682
     35 F         138.2854  143.7733  161.7441 F       1  UNL1       -0.1682
     36 F         138.9348  145.4026  164.1503 F       1  UNL1       -0.1682
@<TRIPOS>BOND
     1    19    20    2
     2    20    23    1
     3    23    24    1
     4    24    25   ar
     5    25    26   ar
     6    26    27    1
     7    26    28   ar
     8    28    29   ar
     9    29    30    1
    10    29    31   ar
    11    20    21   am
    12     1    21    1
    13     1     2    1
    14     2     3    2
    15     3    13    1
    16    13    14   ar
    17    14    15   ar
    18    15    16   ar
    19    16    17   ar
    20    17    18   ar
    21     3     4    1
    22     4     5   ar
    23     5     6   ar
    24     6     7   ar
    25     7     8   ar
    26     8     9   ar
    27     9    10    1
    28    10    32    1
    29    32    33    1
    30    33    34    1
    31    33    35    1
    32    33    36    1
    33    10    11   am
    34    11    12    2
    35    31    24   ar
    36    11     1    1
    37    18    13   ar
    38     9     4   ar
    39    21    22    1
@<TRIPOS>MOLECULE
*****
 36 39 0 0 0
SMALL
GASTEIGER

@<TRIPOS>ATOM
      1 C         142.8949  138.2048  159.9690 C.3     1  UNL1        0.2551
      2 N         142.6843  137.2429  158.8374 N.2     1  UNL1       -0.2434
      3 C         142.9002  137.4640  157.3696 C.2     1  UNL1        0.0795
      4 C         143.3801  138.7015  156.6708 C.ar    1  UNL1        0.0310
      5 C         143.4562  138.4982  155.1866 C.ar    1  UNL1        0.0027
      6 C         143.9149  139.6169  154.2989 C.ar    1  UNL1        0.0001
      7 C         144.2973  140.9390  154.8954 C.ar    1  UNL1        0.0013
      8 C         144.2212  141.1423  156.3796 C.ar    1  UNL1        0.0150
      9 C         143.7625  140.0236  157.2672 C.ar    1  UNL1        0.0556
     10 N         143.7596  140.4347  158.7098 N.am    1  UNL1       -0.2474
     11 C         143.3735  139.6253  159.9122 C.2     1  UNL1        0.2714
     12 O         143.4800  140.3294  161.2324 O.2     1  UNL1       -0.2705
     13 C         142.5960  136.2927  156.4833 C.ar    1  UNL1        0.0174
     14 C         143.6249  135.2207  156.2775 C.ar    1  UNL1        0.0015
     15 C         143.3208  134.0494  155.3912 C.ar    1  UNL1        0.0000
     16 C         141.9877  133.9500  154.7108 C.ar    1  UNL1        0.0000
     17 C         140.9588  135.0219  154.9165 C.ar    1  UNL1        0.0000
     18 C         141.2629  136.1932  155.8028 C.ar    1  UNL1        0.0015
     19 O         140.0955  138.3519  161.0376 O.2     1  UNL1       -0.2747
     20 C         141.1865  137.7498  161.8727 C.2     1  UNL1        0.2285
     21 N         142.5861  137.6763  161.3384 N.am    1  UNL1       -0.2795
     22 H         143.3021  137.2811  161.8865 H       1  UNL1        0.1516
     23 C         140.8777  137.2213  163.2421 C.3     1  UNL1        0.1114
     24 C         140.2023  138.1020  164.2512 C.ar    1  UNL1       -0.0114
     25 C         139.1094  137.5491  165.1172 C.ar    1  UNL1        0.0077
     26 C         138.4339  138.4298  166.1263 C.ar    1  UNL1        0.0582
     27 CL        137.3411  137.8769  166.9922 Cl      1  UNL1       -0.0822
     28 C         138.8514  139.8634  166.2694 C.ar    1  UNL1        0.0228
     29 C         139.9444  140.4163  165.4034 C.ar    1  UNL1        0.0582
     30 CL        140.3619  141.8499  165.5465 Cl      1  UNL1       -0.0822
     31 C         140.6198  139.5356  164.3944 C.ar    1  UNL1        0.0077
     32 C         144.2012  141.8412  158.9866 C.3     1  UNL1        0.2017
     33 C         143.1925  142.8814  159.3750 C.3     1  UNL1        0.4160
     34 F         142.1839  143.9215  159.7632 F       1  UNL1       -0.1682
     35 F         142.1105  142.7397  158.3458 F       1  UNL1       -0.1682
     36 F         144.0562  143.2867  160.5324 F       1  UNL1       -0.1682
@<TRIPOS>BOND
     1    19    20    2
     2    20    23    1
     3    23    24    1
     4    24    25   ar
     5    25    26   ar
     6    26    27    1
     7    26    28   ar
     8    28    29   ar
     9    29    30    1
    10    29    31   ar
    11    20    21   am
    12     1    21    1
    13     1     2    1
    14     2     3    2
    15     3    13    1
    16    13    14   ar
    17    14    15   ar
    18    15    16   ar
    19    16    17   ar
    20    17    18   ar
    21     3     4    1
    22     4     5   ar
    23     5     6   ar
    24     6     7   ar
    25     7     8   ar
    26     8     9   ar
    27     9    10    1
    28    10    32    1
    29    32    33    1
    30    33    34    1
    31    33    35    1
    32    33    36    1
    33    10    11   am
    34    11    12    2
    35    31    24   ar
    36    11     1    1
    37    18    13   ar
    38     9     4   ar
    39    21    22    1
@<TRIPOS>MOLECULE
*****
 36 39 0 0 0
SMALL
GASTEIGER

@<TRIPOS>ATOM
      1 C         143.0035  142.4117  162.2140 C.3     1  UNL1        0.2551
      2 N         143.6116  142.0400  160.8941 N.2     1  UNL1       -0.2434
      3 C         143.3112  142.5997  159.5353 C.2     1  UNL1        0.0795
      4 C         142.3285  143.6693  159.1606 C.ar    1  UNL1        0.0310
      5 C         142.3413  143.9324  157.6840 C.ar    1  UNL1        0.0027
      6 C         141.4292  144.9695  157.0990 C.ar    1  UNL1        0.0001
      7 C         140.5042  145.7436  157.9908 C.ar    1  UNL1        0.0013
      8 C         140.4913  145.4805  159.4674 C.ar    1  UNL1        0.0150
      9 C         141.4035  144.4433  160.0524 C.ar    1  UNL1        0.0556
     10 N         141.2328  144.3390  161.5390 N.am    1  UNL1       -0.2474
     11 C         141.9448  143.4349  162.5010 C.2     1  UNL1        0.2714
     12 O         141.5454  143.5720  163.9403 O.2     1  UNL1       -0.2705
     13 C         144.0974  142.0121  158.4010 C.ar    1  UNL1        0.0174
     14 C         145.3990  142.6338  157.9893 C.ar    1  UNL1        0.0015
     15 C         146.1853  142.0462  156.8551 C.ar    1  UNL1        0.0000
     16 C         145.6700  140.8369  156.1325 C.ar    1  UNL1        0.0000
     17 C         144.3685  140.2152  156.5442 C.ar    1  UNL1        0.0000
     18 C         143.5822  140.8027  157.6784 C.ar    1  UNL1        0.0015
     19 O         141.4728  140.0686  163.2942 O.2     1  UNL1       -0.2747
     20 C         142.7574  140.4895  163.9444 C.2     1  UNL1        0.2285
     21 N         143.5227  141.6610  163.4043 N.am    1  UNL1       -0.2795
     22 H         144.3659  141.9372  163.8310 H       1  UNL1        0.1516
     23 C         143.2767  139.7387  165.1347 C.3     1  UNL1        0.1114
     24 C         142.7363  140.0349  166.5024 C.ar    1  UNL1       -0.0114
     25 C         142.9721  139.0707  167.6269 C.ar    1  UNL1        0.0077
     26 C         142.4317  139.3668  168.9946 C.ar    1  UNL1        0.0582
     27 CL        142.6676  138.4026  170.1191 Cl      1  UNL1       -0.0822
     28 C         141.6556  140.6272  169.2376 C.ar    1  UNL1        0.0228
     29 C         141.4198  141.5914  168.1129 C.ar    1  UNL1        0.0582
     30 CL        140.6436  142.8517  168.3559 Cl      1  UNL1       -0.0822
     31 C         141.9601  141.2952  166.7454 C.ar    1  UNL1        0.0077
     32 C         140.2154  145.2607  162.1435 C.3     1  UNL1        0.2017
     33 C         138.9923  144.6977  162.8047 C.3     1  UNL1        0.4160
     34 F         137.7693  144.1348  163.4658 F       1  UNL1       -0.1682
     35 F         138.9619  145.3708  164.1448 F       1  UNL1       -0.1682
     36 F         138.7187  143.8637  161.5883 F       1  UNL1       -0.1682
@<TRIPOS>BOND
     1    19    20    2
     2    20    23    1
     3    23    24    1
     4    24    25   ar
     5    25    26   ar
     6    26    27    1
     7    26    28   ar
     8    28    29   ar
     9    29    30    1
    10    29    31   ar
    11    20    21   am
    12     1    21    1
    13     1     2    1
    14     2     3    2
    15     3    13    1
    16    13    14   ar
    17    14    15   ar
    18    15    16   ar
    19    16    17   ar
    20    17    18   ar
    21     3     4    1
    22     4     5   ar
    23     5     6   ar
    24     6     7   ar
    25     7     8   ar
    26     8     9   ar
    27     9    10    1
    28    10    32    1
    29    32    33    1
    30    33    34    1
    31    33    35    1
    32    33    36    1
    33    10    11   am
    34    11    12    2
    35    31    24   ar
    36    11     1    1
    37    18    13   ar
    38     9     4   ar
    39    21    22    1
@<TRIPOS>MOLECULE
*****
 36 39 0 0 0
SMALL
GASTEIGER

@<TRIPOS>ATOM
      1 C         141.5332  139.3849  160.2032 C.3     1  UNL1        0.2551
      2 N         141.6988  138.6522  158.9048 N.2     1  UNL1       -0.2434
      3 C         142.6137  138.9730  157.7602 C.2     1  UNL1        0.0795
      4 C         143.5888  140.1055  157.6312 C.ar    1  UNL1        0.0310
      5 C         144.3103  140.0604  156.3169 C.ar    1  UNL1        0.0027
      6 C         145.3330  141.1068  155.9865 C.ar    1  UNL1        0.0001
      7 C         145.6341  142.1983  156.9704 C.ar    1  UNL1        0.0013
      8 C         144.9125  142.2434  158.2846 C.ar    1  UNL1        0.0150
      9 C         143.8899  141.1970  158.6150 C.ar    1  UNL1        0.0556
     10 N         143.2902  141.4256  159.9708 N.am    1  UNL1       -0.2474
     11 C         142.2414  140.6192  160.6777 C.2     1  UNL1        0.2714
     12 O         141.8489  141.1121  162.0389 O.2     1  UNL1       -0.2705
     13 C         142.5442  138.0375  156.5897 C.ar    1  UNL1        0.0174
     14 C         141.7832  138.4317  155.3586 C.ar    1  UNL1        0.0015
     15 C         141.7138  137.4962  154.1881 C.ar    1  UNL1        0.0000
     16 C         142.4054  136.1665  154.2487 C.ar    1  UNL1        0.0000
     17 C         143.1664  135.7723  155.4797 C.ar    1  UNL1        0.0000
     18 C         143.2358  136.7078  156.6502 C.ar    1  UNL1        0.0015
     19 O         142.4412  137.6735  162.4939 O.2     1  UNL1       -0.2747
     20 C         140.9801  137.9511  162.2981 C.2     1  UNL1        0.2285
     21 N         140.5261  138.8068  161.1528 N.am    1  UNL1       -0.2795
     22 H         139.5672  138.9890  161.0243 H       1  UNL1        0.1516
     23 C         139.9730  137.3730  163.2476 C.3     1  UNL1        0.1114
     24 C         139.6127  138.1138  164.5013 C.ar    1  UNL1       -0.0114
     25 C         138.4898  137.6228  165.3661 C.ar    1  UNL1        0.0077
     26 C         138.1295  138.3636  166.6197 C.ar    1  UNL1        0.0582
     27 CL        137.0066  137.8726  167.4845 Cl      1  UNL1       -0.0822
     28 C         138.8922  139.5953  167.0085 C.ar    1  UNL1        0.0228
     29 C         140.0152  140.0863  166.1436 C.ar    1  UNL1        0.0582
     30 CL        140.7778  141.3181  166.5323 Cl      1  UNL1       -0.0822
     31 C         140.3754  139.3456  164.8900 C.ar    1  UNL1        0.0077
     32 C         143.8078  142.6184  160.7187 C.3     1  UNL1        0.2017
     33 C         144.7700  142.4321  161.8543 C.3     1  UNL1        0.4160
     34 F         145.7322  142.2457  162.9898 F       1  UNL1       -0.1682
     35 F         145.1099  140.9719  161.8061 F       1  UNL1       -0.1682
     36 F         144.6597  143.8905  162.1870 F       1  UNL1       -0.1682
@<TRIPOS>BOND
     1    19    20    2
     2    20    23    1
     3    23    24    1
     4    24    25   ar
     5    25    26   ar
     6    26    27    1
     7    26    28   ar
     8    28    29   ar
     9    29    30    1
    10    29    31   ar
    11    20    21   am
    12     1    21    1
    13     1     2    1
    14     2     3    2
    15     3    13    1
    16    13    14   ar
    17    14    15   ar
    18    15    16   ar
    19    16    17   ar
    20    17    18   ar
    21     3     4    1
    22     4     5   ar
    23     5     6   ar
    24     6     7   ar
    25     7     8   ar
    26     8     9   ar
    27     9    10    1
    28    10    32    1
    29    32    33    1
    30    33    34    1
    31    33    35    1
    32    33    36    1
    33    10    11   am
    34    11    12    2
    35    31    24   ar
    36    11     1    1
    37    18    13   ar
    38     9     4   ar
    39    21    22    1
@<TRIPOS>MOLECULE
*****
 36 39 0 0 0
SMALL
GASTEIGER

@<TRIPOS>ATOM
      1 C         141.6912  144.3972  157.5601 C.3     1  UNL1        0.2551
      2 N         140.9217  144.4270  158.8474 N.2     1  UNL1       -0.2434
      3 C         141.0335  143.5050  160.0252 C.2     1  UNL1        0.0795
      4 C         141.9422  142.3255  160.2068 C.ar    1  UNL1        0.0310
      5 C         141.7326  141.6724  161.5408 C.ar    1  UNL1        0.0027
      6 C         142.5445  140.4705  161.9233 C.ar    1  UNL1        0.0001
      7 C         143.5660  139.9217  160.9718 C.ar    1  UNL1        0.0013
      8 C         143.7756  140.5748  159.6378 C.ar    1  UNL1        0.0150
      9 C         142.9637  141.7767  159.2553 C.ar    1  UNL1        0.0556
     10 N         143.3287  142.2719  157.8873 N.am    1  UNL1       -0.2474
     11 C         142.7624  143.4381  157.1328 C.2     1  UNL1        0.2714
     12 O         143.3443  143.6768  155.7710 O.2     1  UNL1       -0.2705
     13 C         140.1150  143.8017  161.1734 C.ar    1  UNL1        0.0174
     14 C         138.8063  143.0784  161.2933 C.ar    1  UNL1        0.0015
     15 C         137.8878  143.3751  162.4415 C.ar    1  UNL1        0.0000
     16 C         138.2780  144.3951  163.4698 C.ar    1  UNL1        0.0000
     17 C         139.5865  145.1184  163.3500 C.ar    1  UNL1        0.0000
     18 C         140.5051  144.8217  162.2018 C.ar    1  UNL1        0.0015
     19 O         139.1664  144.1912  155.9530 O.2     1  UNL1       -0.2747
     20 C         140.0811  145.3652  155.7656 C.2     1  UNL1        0.2285
     21 N         141.3435  145.4682  156.5691 N.am    1  UNL1       -0.2795
     22 H         141.9438  146.2387  156.4461 H       1  UNL1        0.1516
     23 C         139.7334  146.4362  154.7746 C.3     1  UNL1        0.1114
     24 C         139.3428  147.8030  155.2535 C.ar    1  UNL1       -0.0114
     25 C         139.5049  148.9891  154.3498 C.ar    1  UNL1        0.0077
     26 C         139.1143  150.3559  154.8287 C.ar    1  UNL1        0.0582
     27 CL        139.2763  151.5421  153.9250 Cl      1  UNL1       -0.0822
     28 C         138.5616  150.5365  156.2115 C.ar    1  UNL1        0.0228
     29 C         138.3995  149.3503  157.1152 C.ar    1  UNL1        0.0582
     30 CL        137.8468  149.5309  158.4979 Cl      1  UNL1       -0.0822
     31 C         138.7901  147.9836  156.6362 C.ar    1  UNL1        0.0077
     32 C         144.4020  141.4985  157.1801 C.3     1  UNL1        0.2017
     33 C         145.7885  142.0618  157.0773 C.3     1  UNL1        0.4160
     34 F         147.1748  142.6250  156.9746 F       1  UNL1       -0.1682
     35 F         145.9601  142.8379  158.3494 F       1  UNL1       -0.1682
     36 F         145.9572  141.4023  155.7407 F       1  UNL1       -0.1682
@<TRIPOS>BOND
     1    19    20    2
     2    20    23    1
     3    23    24    1
     4    24    25   ar
     5    25    26   ar
     6    26    27    1
     7    26    28   ar
     8    28    29   ar
     9    29    30    1
    10    29    31   ar
    11    20    21   am
    12     1    21    1
    13     1     2    1
    14     2     3    2
    15     3    13    1
    16    13    14   ar
    17    14    15   ar
    18    15    16   ar
    19    16    17   ar
    20    17    18   ar
    21     3     4    1
    22     4     5   ar
    23     5     6   ar
    24     6     7   ar
    25     7     8   ar
    26     8     9   ar
    27     9    10    1
    28    10    32    1
    29    32    33    1
    30    33    34    1
    31    33    35    1
    32    33    36    1
    33    10    11   am
    34    11    12    2
    35    31    24   ar
    36    11     1    1
    37    18    13   ar
    38     9     4   ar
    39    21    22    1
