@<TRIPOS>MOLECULE
*****
 24 26 0 0 0
SMALL
GASTEIGER

@<TRIPOS>ATOM
      1 C         141.4454  140.9357  167.2609 C.3     1  UNL1        0.0847
      2 N         141.1820  141.3405  168.6810 N.3     1  UNL1       -0.2676
      3 C         141.6730  140.4823  169.8090 C.3     1  UNL1        0.0896
      4 C         141.4096  140.8871  171.2290 C.3     1  UNL1        0.0862
      5 N         140.6552  142.1502  171.5212 N.3     1  UNL1       -0.2951
      6 C         140.1641  143.0085  170.3933 C.3     1  UNL1        0.0862
      7 C         140.4275  142.6036  168.9732 C.3     1  UNL1        0.0896
      8 H         141.2679  142.7342  172.0904 H       1  UNL1        0.1233
      9 C         140.5794  139.9030  166.6025 C.ar    1  UNL1       -0.0075
     10 C         139.1409  139.7639  167.0041 C.ar    1  UNL1       -0.0030
     11 C         138.2748  138.7311  166.3456 C.ar    1  UNL1       -0.0003
     12 C         138.8474  137.8375  165.2856 C.ar    1  UNL1       -0.0000
     13 C         140.2859  137.9766  164.8840 C.ar    1  UNL1       -0.0003
     14 C         141.1519  139.0093  165.5424 C.ar    1  UNL1       -0.0030
     15 C         142.5748  141.5635  166.4992 C.3     1  UNL1        0.0499
     16 C         143.4388  143.3505  164.8227 C.ar    1  UNL1        0.1346
     17 C         143.1703  144.4947  163.8908 C.ar    1  UNL1        0.0366
     18 C         141.7692  144.9964  163.7034 C.ar    1  UNL1        0.0031
     19 C         140.6366  144.3538  164.4479 C.ar    1  UNL1       -0.0001
     20 C         140.9051  143.2095  165.3798 C.ar    1  UNL1       -0.0012
     21 C         142.3062  142.7079  165.5672 C.ar    1  UNL1        0.0135
     22 O         144.8400  142.8488  165.0102 O.3     1  UNL1       -0.4758
     23 C         145.1622  140.4620  164.0358 C.3     1  UNL1        0.0512
     24 C         145.4514  141.9332  163.9914 C.3     1  UNL1        0.2055
@<TRIPOS>BOND
     1    23    24    1
     2    24    22    1
     3    22    16    1
     4    16    17   ar
     5    17    18   ar
     6    18    19   ar
     7    19    20   ar
     8    20    21   ar
     9    21    15    1
    10     1    15    1
    11     1     9    1
    12     9    10   ar
    13    10    11   ar
    14    11    12   ar
    15    12    13   ar
    16    13    14   ar
    17     1     2    1
    18     2     3    1
    19     3     4    1
    20     4     5    1
    21     5     6    1
    22     6     7    1
    23    21    16   ar
    24    14     9   ar
    25     7     2    1
    26     5     8    1
@<TRIPOS>MOLECULE
*****
 24 26 0 0 0
SMALL
GASTEIGER

@<TRIPOS>ATOM
      1 C         140.6318  141.1006  167.4504 C.3     1  UNL1        0.0847
      2 N         141.1535  140.9398  168.8476 N.3     1  UNL1       -0.2676
      3 C         140.4578  141.6179  169.9906 C.3     1  UNL1        0.0896
      4 C         140.9794  141.4572  171.3877 C.3     1  UNL1        0.0862
      5 N         142.1966  140.6183  171.6420 N.3     1  UNL1       -0.2951
      6 C         142.8922  139.9401  170.4990 C.3     1  UNL1        0.0862
      7 C         142.3706  140.1009  169.1019 C.3     1  UNL1        0.0896
      8 H         141.9179  139.8850  172.2939 H       1  UNL1        0.1233
      9 C         140.0425  139.9244  166.7299 C.ar    1  UNL1       -0.0075
     10 C         138.6648  139.4445  167.0787 C.ar    1  UNL1       -0.0030
     11 C         138.0755  138.2683  166.3581 C.ar    1  UNL1       -0.0003
     12 C         138.8639  137.5720  165.2887 C.ar    1  UNL1       -0.0000
     13 C         140.2415  138.0518  164.9399 C.ar    1  UNL1       -0.0003
     14 C         140.8309  139.2280  165.6605 C.ar    1  UNL1       -0.0030
     15 C         140.6996  142.4376  166.7738 C.3     1  UNL1        0.0499
     16 C         141.4522  143.2289  164.4164 C.ar    1  UNL1        0.1346
     17 C         142.5452  143.5158  163.4300 C.ar    1  UNL1        0.0366
     18 C         143.9786  143.2982  163.8146 C.ar    1  UNL1        0.0031
     19 C         144.3190  142.7938  165.1856 C.ar    1  UNL1       -0.0001
     20 C         143.2260  142.5069  166.1720 C.ar    1  UNL1       -0.0012
     21 C         141.7926  142.7245  165.7874 C.ar    1  UNL1        0.0135
     22 O         140.0187  143.4465  164.0318 O.3     1  UNL1       -0.4758
     23 C         138.4794  144.9802  165.4560 C.3     1  UNL1        0.0512
     24 C         139.3729  144.7796  164.2680 C.3     1  UNL1        0.2055
@<TRIPOS>BOND
     1    23    24    1
     2    24    22    1
     3    22    16    1
     4    16    17   ar
     5    17    18   ar
     6    18    19   ar
     7    19    20   ar
     8    20    21   ar
     9    21    15    1
    10     1    15    1
    11     1     9    1
    12     9    10   ar
    13    10    11   ar
    14    11    12   ar
    15    12    13   ar
    16    13    14   ar
    17     1     2    1
    18     2     3    1
    19     3     4    1
    20     4     5    1
    21     5     6    1
    22     6     7    1
    23    21    16   ar
    24    14     9   ar
    25     7     2    1
    26     5     8    1
@<TRIPOS>MOLECULE
*****
 24 26 0 0 0
SMALL
GASTEIGER

@<TRIPOS>ATOM
      1 C         141.3291  141.8371  167.0481 C.3     1  UNL1        0.0847
      2 N         141.1486  141.0120  168.2878 N.3     1  UNL1       -0.2676
      3 C         142.2347  140.0772  168.7312 C.3     1  UNL1        0.0896
      4 C         142.0543  139.2521  169.9709 C.3     1  UNL1        0.0862
      5 N         140.7878  139.3619  170.7670 N.3     1  UNL1       -0.2951
      6 C         139.7017  140.2966  170.3235 C.3     1  UNL1        0.0862
      7 C         139.8821  141.1217  169.0839 C.3     1  UNL1        0.0896
      8 H         141.0558  139.6476  171.7088 H       1  UNL1        0.1233
      9 C         140.1645  142.0848  166.1359 C.ar    1  UNL1       -0.0075
     10 C         139.4466  140.9286  165.5052 C.ar    1  UNL1       -0.0030
     11 C         138.2818  141.1764  164.5930 C.ar    1  UNL1       -0.0003
     12 C         137.8351  142.5804  164.3115 C.ar    1  UNL1       -0.0000
     13 C         138.5530  143.7366  164.9422 C.ar    1  UNL1       -0.0003
     14 C         139.7176  143.4888  165.8544 C.ar    1  UNL1       -0.0030
     15 C         142.6743  142.4143  166.7207 C.3     1  UNL1        0.0499
     16 C         144.3925  142.6813  164.7902 C.ar    1  UNL1        0.1346
     17 C         145.2223  142.0765  163.6968 C.ar    1  UNL1        0.0366
     18 C         145.1635  140.5998  163.4402 C.ar    1  UNL1        0.0031
     19 C         144.2750  139.7280  164.2771 C.ar    1  UNL1       -0.0001
     20 C         143.4453  140.3328  165.3706 C.ar    1  UNL1       -0.0012
     21 C         143.5040  141.8095  165.6271 C.ar    1  UNL1        0.0135
     22 O         144.4513  144.1581  165.0469 O.3     1  UNL1       -0.4758
     23 C         142.3355  145.0202  163.8100 C.3     1  UNL1        0.0512
     24 C         143.8070  145.1126  164.0857 C.3     1  UNL1        0.2055
@<TRIPOS>BOND
     1    23    24    1
     2    24    22    1
     3    22    16    1
     4    16    17   ar
     5    17    18   ar
     6    18    19   ar
     7    19    20   ar
     8    20    21   ar
     9    21    15    1
    10     1    15    1
    11     1     9    1
    12     9    10   ar
    13    10    11   ar
    14    11    12   ar
    15    12    13   ar
    16    13    14   ar
    17     1     2    1
    18     2     3    1
    19     3     4    1
    20     4     5    1
    21     5     6    1
    22     6     7    1
    23    21    16   ar
    24    14     9   ar
    25     7     2    1
    26     5     8    1
@<TRIPOS>MOLECULE
*****
 24 26 0 0 0
SMALL
GASTEIGER

@<TRIPOS>ATOM
      1 C         141.2997  141.0002  167.2220 C.3     1  UNL1        0.0847
      2 N         141.5691  140.9505  168.6968 N.3     1  UNL1       -0.2676
      3 C         140.8002  141.8382  169.6300 C.3     1  UNL1        0.0896
      4 C         141.0696  141.7884  171.1047 C.3     1  UNL1        0.0862
      5 N         142.1077  140.8510  171.6463 N.3     1  UNL1       -0.2951
      6 C         142.8766  139.9633  170.7131 C.3     1  UNL1        0.0862
      7 C         142.6072  140.0130  169.2384 C.3     1  UNL1        0.0896
      8 H         141.6341  140.2394  172.3111 H       1  UNL1        0.1233
      9 C         140.4584  139.9390  166.5770 C.ar    1  UNL1       -0.0075
     10 C         141.0360  139.0817  165.4901 C.ar    1  UNL1       -0.0030
     11 C         140.1946  138.0204  164.8451 C.ar    1  UNL1       -0.0003
     12 C         138.7758  137.8165  165.2870 C.ar    1  UNL1       -0.0000
     13 C         138.1982  138.6739  166.3739 C.ar    1  UNL1       -0.0003
     14 C         139.0395  139.7351  167.0189 C.ar    1  UNL1       -0.0030
     15 C         141.8716  142.1113  166.3922 C.3     1  UNL1        0.0499
     16 C         141.2756  143.3246  164.1735 C.ar    1  UNL1        0.1346
     17 C         140.3640  144.2182  163.3859 C.ar    1  UNL1        0.0366
     18 C         139.1366  144.7922  164.0295 C.ar    1  UNL1        0.0031
     19 C         138.8209  144.4725  165.4606 C.ar    1  UNL1       -0.0001
     20 C         139.7326  143.5789  166.2482 C.ar    1  UNL1       -0.0012
     21 C         140.9599  143.0050  165.6046 C.ar    1  UNL1        0.0135
     22 O         142.5030  142.7506  163.5299 O.3     1  UNL1       -0.4758
     23 C         143.8437  144.8962  164.1205 C.3     1  UNL1        0.0512
     24 C         143.7398  143.5883  163.3935 C.3     1  UNL1        0.2055
@<TRIPOS>BOND
     1    23    24    1
     2    24    22    1
     3    22    16    1
     4    16    17   ar
     5    17    18   ar
     6    18    19   ar
     7    19    20   ar
     8    20    21   ar
     9    21    15    1
    10     1    15    1
    11     1     9    1
    12     9    10   ar
    13    10    11   ar
    14    11    12   ar
    15    12    13   ar
    16    13    14   ar
    17     1     2    1
    18     2     3    1
    19     3     4    1
    20     4     5    1
    21     5     6    1
    22     6     7    1
    23    21    16   ar
    24    14     9   ar
    25     7     2    1
    26     5     8    1
@<TRIPOS>MOLECULE
*****
 24 26 0 0 0
SMALL
GASTEIGER

@<TRIPOS>ATOM
      1 C         141.3407  140.8745  167.3084 C.3     1  UNL1        0.0847
      2 N         141.6229  141.3131  168.7149 N.3     1  UNL1       -0.2676
      3 C         142.5334  142.4777  168.9689 C.3     1  UNL1        0.0896
      4 C         142.8156  142.9163  170.3753 C.3     1  UNL1        0.0862
      5 N         142.1873  142.1902  171.5277 N.3     1  UNL1       -0.2951
      6 C         141.2768  141.0255  171.2736 C.3     1  UNL1        0.0862
      7 C         140.9946  140.5870  169.8673 C.3     1  UNL1        0.0896
      8 H         141.6456  142.8790  172.0497 H       1  UNL1        0.1233
      9 C         142.4732  140.5090  166.3953 C.ar    1  UNL1       -0.0075
     10 C         142.9447  139.0872  166.3172 C.ar    1  UNL1       -0.0030
     11 C         144.0772  138.7217  165.4041 C.ar    1  UNL1       -0.0003
     12 C         144.7382  139.7779  164.5690 C.ar    1  UNL1       -0.0000
     13 C         144.2666  141.1997  164.6470 C.ar    1  UNL1       -0.0003
     14 C         143.1342  141.5653  165.5602 C.ar    1  UNL1       -0.0030
     15 C         139.9260  140.8015  166.8151 C.3     1  UNL1        0.0499
     16 C         138.3873  141.5076  164.8443 C.ar    1  UNL1        0.1346
     17 C         137.8579  142.5681  163.9251 C.ar    1  UNL1        0.0366
     18 C         138.3378  143.9831  164.0574 C.ar    1  UNL1        0.0031
     19 C         139.3470  144.3376  165.1090 C.ar    1  UNL1       -0.0001
     20 C         139.8764  143.2771  166.0282 C.ar    1  UNL1       -0.0012
     21 C         139.3966  141.8621  165.8959 C.ar    1  UNL1        0.0135
     22 O         137.9075  140.0926  164.7121 O.3     1  UNL1       -0.4758
     23 C         139.2434  137.8745  164.4993 C.3     1  UNL1        0.0512
     24 C         138.6771  139.1149  163.8743 C.3     1  UNL1        0.2055
@<TRIPOS>BOND
     1    23    24    1
     2    24    22    1
     3    22    16    1
     4    16    17   ar
     5    17    18   ar
     6    18    19   ar
     7    19    20   ar
     8    20    21   ar
     9    21    15    1
    10     1    15    1
    11     1     9    1
    12     9    10   ar
    13    10    11   ar
    14    11    12   ar
    15    12    13   ar
    16    13    14   ar
    17     1     2    1
    18     2     3    1
    19     3     4    1
    20     4     5    1
    21     5     6    1
    22     6     7    1
    23    21    16   ar
    24    14     9   ar
    25     7     2    1
    26     5     8    1
@<TRIPOS>MOLECULE
*****
 24 26 0 0 0
SMALL
GASTEIGER

@<TRIPOS>ATOM
      1 C         140.3798  140.2263  167.4268 C.3     1  UNL1        0.0847
      2 N         140.4704  140.8723  168.7776 N.3     1  UNL1       -0.2676
      3 C         140.2689  142.3523  168.9162 C.3     1  UNL1        0.0896
      4 C         140.3594  142.9983  170.2669 C.3     1  UNL1        0.0862
      5 N         140.6515  142.1644  171.4790 N.3     1  UNL1       -0.2951
      6 C         140.8531  140.6844  171.3404 C.3     1  UNL1        0.0862
      7 C         140.7625  140.0384  169.9897 C.3     1  UNL1        0.0896
      8 H         139.8710  142.2963  172.1222 H       1  UNL1        0.1233
      9 C         141.5889  140.1675  166.5410 C.ar    1  UNL1       -0.0075
     10 C         141.9471  141.3436  165.6817 C.ar    1  UNL1       -0.0030
     11 C         143.1562  141.2847  164.7959 C.ar    1  UNL1       -0.0003
     12 C         144.0071  140.0497  164.7694 C.ar    1  UNL1       -0.0000
     13 C         143.6489  138.8736  165.6288 C.ar    1  UNL1       -0.0003
     14 C         142.4398  138.9324  166.5145 C.ar    1  UNL1       -0.0030
     15 C         139.0802  139.6392  166.9619 C.3     1  UNL1        0.0499
     16 C         138.3842  140.3341  164.5571 C.ar    1  UNL1        0.1346
     17 C         138.1918  139.9900  163.1099 C.ar    1  UNL1        0.0366
     18 C         138.5030  138.6068  162.6201 C.ar    1  UNL1        0.0031
     19 C         139.0066  137.5677  163.5776 C.ar    1  UNL1       -0.0001
     20 C         139.1989  137.9119  165.0248 C.ar    1  UNL1       -0.0012
     21 C         138.8878  139.2951  165.5146 C.ar    1  UNL1        0.0135
     22 O         138.0730  141.7174  165.0469 O.3     1  UNL1       -0.4758
     23 C         139.3543  143.9556  165.3613 C.3     1  UNL1        0.0512
     24 C         138.7870  142.8990  164.4603 C.3     1  UNL1        0.2055
@<TRIPOS>BOND
     1    23    24    1
     2    24    22    1
     3    22    16    1
     4    16    17   ar
     5    17    18   ar
     6    18    19   ar
     7    19    20   ar
     8    20    21   ar
     9    21    15    1
    10     1    15    1
    11     1     9    1
    12     9    10   ar
    13    10    11   ar
    14    11    12   ar
    15    12    13   ar
    16    13    14   ar
    17     1     2    1
    18     2     3    1
    19     3     4    1
    20     4     5    1
    21     5     6    1
    22     6     7    1
    23    21    16   ar
    24    14     9   ar
    25     7     2    1
    26     5     8    1
@<TRIPOS>MOLECULE
*****
 24 26 0 0 0
SMALL
GASTEIGER

@<TRIPOS>ATOM
      1 C         140.7894  142.7346  165.6792 C.3     1  UNL1        0.0847
      2 N         139.7644  143.1628  164.6711 N.3     1  UNL1       -0.2676
      3 C         138.6187  142.2550  164.3346 C.3     1  UNL1        0.0896
      4 C         137.5937  142.6831  163.3266 C.3     1  UNL1        0.0862
      5 N         137.7144  144.0189  162.6552 N.3     1  UNL1       -0.2951
      6 C         138.8601  144.9267  162.9917 C.3     1  UNL1        0.0862
      7 C         139.8851  144.4986  163.9997 C.3     1  UNL1        0.0896
      8 H         136.8593  144.5332  162.8667 H       1  UNL1        0.1233
      9 C         142.1169  142.2072  165.2214 C.ar    1  UNL1       -0.0075
     10 C         142.2802  140.7469  164.9199 C.ar    1  UNL1       -0.0030
     11 C         143.6078  140.2195  164.4621 C.ar    1  UNL1       -0.0003
     12 C         144.7719  141.1524  164.3058 C.ar    1  UNL1       -0.0000
     13 C         144.6086  142.6127  164.6073 C.ar    1  UNL1       -0.0003
     14 C         143.2811  143.1401  165.0651 C.ar    1  UNL1       -0.0030
     15 C         140.4869  142.8339  167.1450 C.3     1  UNL1        0.0499
     16 C         140.6189  140.6640  168.5678 C.ar    1  UNL1        0.1346
     17 C         141.3521  139.7943  169.5455 C.ar    1  UNL1        0.0366
     18 C         142.6866  140.2247  170.0782 C.ar    1  UNL1        0.0031
     19 C         143.2879  141.5249  169.6332 C.ar    1  UNL1       -0.0001
     20 C         142.5547  142.3946  168.6555 C.ar    1  UNL1       -0.0012
     21 C         141.2202  141.9642  168.1228 C.ar    1  UNL1        0.0135
     22 O         139.2843  140.2336  168.0350 O.3     1  UNL1       -0.4758
     23 C         138.0064  138.5735  166.4985 C.3     1  UNL1        0.0512
     24 C         139.2048  139.4343  166.7682 C.3     1  UNL1        0.2055
@<TRIPOS>BOND
     1    23    24    1
     2    24    22    1
     3    22    16    1
     4    16    17   ar
     5    17    18   ar
     6    18    19   ar
     7    19    20   ar
     8    20    21   ar
     9    21    15    1
    10     1    15    1
    11     1     9    1
    12     9    10   ar
    13    10    11   ar
    14    11    12   ar
    15    12    13   ar
    16    13    14   ar
    17     1     2    1
    18     2     3    1
    19     3     4    1
    20     4     5    1
    21     5     6    1
    22     6     7    1
    23    21    16   ar
    24    14     9   ar
    25     7     2    1
    26     5     8    1
@<TRIPOS>MOLECULE
*****
 24 26 0 0 0
SMALL
GASTEIGER

@<TRIPOS>ATOM
      1 C         141.0285  140.4503  165.6513 C.3     1  UNL1        0.0847
      2 N         141.2235  139.3676  164.6315 N.3     1  UNL1       -0.2676
      3 C         142.5198  139.2663  163.8837 C.3     1  UNL1        0.0896
      4 C         142.7148  138.1837  162.8640 C.3     1  UNL1        0.0862
      5 N         141.6135  137.2023  162.5922 N.3     1  UNL1       -0.2951
      6 C         140.3172  137.3035  163.3400 C.3     1  UNL1        0.0862
      7 C         140.1222  138.3862  164.3597 C.3     1  UNL1        0.0896
      8 H         141.9920  136.2746  162.7833 H       1  UNL1        0.1233
      9 C         141.1696  140.1392  167.1118 C.ar    1  UNL1       -0.0075
     10 C         142.4595  139.5843  167.6393 C.ar    1  UNL1       -0.0030
     11 C         142.6006  139.2732  169.0999 C.ar    1  UNL1       -0.0003
     12 C         141.4518  139.5170  170.0330 C.ar    1  UNL1       -0.0000
     13 C         140.1619  140.0719  169.5056 C.ar    1  UNL1       -0.0003
     14 C         140.0208  140.3830  168.0450 C.ar    1  UNL1       -0.0030
     15 C         140.6925  141.8441  165.2103 C.3     1  UNL1        0.0499
     16 C         141.5102  144.0420  164.0921 C.ar    1  UNL1        0.1346
     17 C         142.6079  145.0230  163.8047 C.ar    1  UNL1        0.0366
     18 C         143.9858  144.7870  164.3483 C.ar    1  UNL1        0.0031
     19 C         144.2660  143.5700  165.1793 C.ar    1  UNL1       -0.0001
     20 C         143.1682  142.5890  165.4666 C.ar    1  UNL1       -0.0012
     21 C         141.7903  142.8251  164.9230 C.ar    1  UNL1        0.0135
     22 O         140.1321  144.2781  163.5485 O.3     1  UNL1       -0.4758
     23 C         137.8010  144.1518  164.6886 C.3     1  UNL1        0.0512
     24 C         139.0772  144.8927  164.4199 C.3     1  UNL1        0.2055
@<TRIPOS>BOND
     1    23    24    1
     2    24    22    1
     3    22    16    1
     4    16    17   ar
     5    17    18   ar
     6    18    19   ar
     7    19    20   ar
     8    20    21   ar
     9    21    15    1
    10     1    15    1
    11     1     9    1
    12     9    10   ar
    13    10    11   ar
    14    11    12   ar
    15    12    13   ar
    16    13    14   ar
    17     1     2    1
    18     2     3    1
    19     3     4    1
    20     4     5    1
    21     5     6    1
    22     6     7    1
    23    21    16   ar
    24    14     9   ar
    25     7     2    1
    26     5     8    1
@<TRIPOS>MOLECULE
*****
 24 26 0 0 0
SMALL
GASTEIGER

@<TRIPOS>ATOM
      1 C         141.6772  141.6470  164.8157 C.3     1  UNL1        0.0847
      2 N         142.9185  141.9287  164.0219 N.3     1  UNL1       -0.2676
      3 C         144.1582  141.1171  164.2551 C.3     1  UNL1        0.0896
      4 C         145.3994  141.3988  163.4614 C.3     1  UNL1        0.0862
      5 N         145.4009  142.4921  162.4345 N.3     1  UNL1       -0.2951
      6 C         144.1612  143.3037  162.2013 C.3     1  UNL1        0.0862
      7 C         142.9200  143.0220  162.9950 C.3     1  UNL1        0.0896
      8 H         145.6409  142.0584  161.5430 H       1  UNL1        0.1233
      9 C         140.4405  142.4650  164.5894 C.ar    1  UNL1       -0.0075
     10 C         140.1642  143.6611  165.4513 C.ar    1  UNL1       -0.0030
     11 C         138.9274  144.4792  165.2249 C.ar    1  UNL1       -0.0003
     12 C         137.9669  144.1010  164.1367 C.ar    1  UNL1       -0.0000
     13 C         138.2431  142.9049  163.2747 C.ar    1  UNL1       -0.0003
     14 C         139.4799  142.0869  163.5010 C.ar    1  UNL1       -0.0030
     15 C         141.6728  140.5473  165.8358 C.3     1  UNL1        0.0499
     16 C         139.5142  140.0054  167.1762 C.ar    1  UNL1        0.1346
     17 C         138.2833  139.1716  167.3747 C.ar    1  UNL1        0.0366
     18 C         137.9800  138.0456  166.4312 C.ar    1  UNL1        0.0031
     19 C         138.9077  137.7535  165.2893 C.ar    1  UNL1       -0.0001
     20 C         140.1386  138.5873  165.0908 C.ar    1  UNL1       -0.0012
     21 C         140.4419  139.7133  166.0342 C.ar    1  UNL1        0.0135
     22 O         139.8174  141.1315  168.1197 O.3     1  UNL1       -0.4758
     23 C         141.3257  139.6261  169.6059 C.3     1  UNL1        0.0512
     24 C         140.4728  140.8487  169.4389 C.3     1  UNL1        0.2055
@<TRIPOS>BOND
     1    23    24    1
     2    24    22    1
     3    22    16    1
     4    16    17   ar
     5    17    18   ar
     6    18    19   ar
     7    19    20   ar
     8    20    21   ar
     9    21    15    1
    10     1    15    1
    11     1     9    1
    12     9    10   ar
    13    10    11   ar
    14    11    12   ar
    15    12    13   ar
    16    13    14   ar
    17     1     2    1
    18     2     3    1
    19     3     4    1
    20     4     5    1
    21     5     6    1
    22     6     7    1
    23    21    16   ar
    24    14     9   ar
    25     7     2    1
    26     5     8    1
