@<TRIPOS>MOLECULE
*****
 44 48 0 0 0
SMALL
GASTEIGER

@<TRIPOS>ATOM
      1 C         140.7511  141.7142  164.3542 C.ar    1  UNL1        0.1534
      2 N         141.8044  141.2179  163.4086 N.ar    1  UNL1       -0.2279
      3 C         141.6722  141.9827  162.1249 C.ar    1  UNL1        0.1036
      4 C         140.5373  142.9516  162.2773 C.ar    1  UNL1        0.1142
      5 C         139.9487  143.9634  161.3394 C.ar    1  UNL1        0.1432
      6 N         140.5180  144.1294  159.9616 N.pl3   1  UNL1       -0.3414
      7 N         138.7908  144.8094  161.7794 N.ar    1  UNL1       -0.2265
      8 C         138.2215  144.6434  163.1572 C.ar    1  UNL1        0.1193
      9 C         138.8100  143.6315  164.0950 C.ar    1  UNL1        0.1021
     10 N         139.9680  142.7856  163.6551 N.ar    1  UNL1       -0.2865
     11 H         141.2780  143.5742  159.6729 H       1  UNL1        0.1438
     12 H         140.1317  144.7935  159.3461 H       1  UNL1        0.1438
     13 C         141.9128  141.8508  169.4170 C.2     1  UNL1        0.2560
     14 O         142.9534  142.8977  169.1500 O.2     1  UNL1       -0.2721
     15 N         141.1021  141.2932  168.2849 N.am    1  UNL1       -0.2720
     16 C         140.0615  140.2464  168.5519 C.3     1  UNL1        0.1256
     17 C         139.2508  139.6888  167.4197 C.3     1  UNL1        0.1641
     18 O         139.4807  140.1781  166.0205 O.3     1  UNL1       -0.3451
     19 C         140.5212  141.2249  165.7534 C.3     1  UNL1        0.1913
     20 C         141.3320  141.7825  166.8857 C.3     1  UNL1        0.1308
     21 C         141.6830  141.3616  170.8162 C.3     1  UNL1        0.2272
     22 C         139.5950  142.8823  171.0959 C.3     1  UNL1        0.1748
     23 O         140.6929  142.0589  171.7015 O.3     1  UNL1       -0.3417
     24 C         142.5253  141.8091  160.9034 C.ar    1  UNL1        0.0467
     25 C         142.1849  140.7523  159.8949 C.ar    1  UNL1        0.0039
     26 C         143.0379  140.5787  158.6733 C.ar    1  UNL1        0.0047
     27 C         144.2314  141.4619  158.4603 C.ar    1  UNL1        0.0559
     28 C         144.5719  142.5188  159.4688 C.ar    1  UNL1        0.0342
     29 C         143.7189  142.6924  160.6904 C.ar    1  UNL1        0.1417
     30 F         144.0594  143.7492  161.6989 F       1  UNL1       -0.2041
     31 C         145.0845  141.2883  157.2387 C.2     1  UNL1        0.2506
     32 O         145.1730  139.9485  156.5701 O.2     1  UNL1       -0.2698
     33 N         145.8490  142.4545  156.6859 N.am    1  UNL1       -0.2658
     34 H         145.7908  143.3338  157.1248 H       1  UNL1        0.1566
     35 C         146.7020  142.2808  155.4643 C.ar    1  UNL1        0.1343
     36 C         148.1955  142.2293  155.5937 C.ar    1  UNL1        0.0383
     37 C         149.0486  142.0556  154.3722 C.ar    1  UNL1        0.0757
     38 C         148.4081  141.9334  153.0214 C.ar    1  UNL1        0.0246
     39 C         146.9146  141.9849  152.8920 C.ar    1  UNL1        0.1003
     40 N         146.0615  142.1586  154.1135 N.ar    1  UNL1       -0.2290
     41 C         150.5421  142.0041  154.5016 C.3     1  UNL1        0.4187
     42 F         152.0356  141.9526  154.6310 F       1  UNL1       -0.1659
     43 F         150.4303  140.7298  155.2849 F       1  UNL1       -0.1659
     44 F         150.6539  143.2784  153.7182 F       1  UNL1       -0.1659
@<TRIPOS>BOND
     1    22    23    1
     2    23    21    1
     3    21    13    1
     4    13    14    2
     5    13    15   am
     6    15    16    1
     7    16    17    1
     8    17    18    1
     9    18    19    1
    10    19     1    1
    11     1     2   ar
    12     2     3   ar
    13     3    24    1
    14    24    25   ar
    15    25    26   ar
    16    26    27   ar
    17    27    31    1
    18    31    32    2
    19    31    33   am
    20    33    35    1
    21    35    36   ar
    22    36    37   ar
    23    37    41    1
    24    41    42    1
    25    41    43    1
    26    41    44    1
    27    37    38   ar
    28    38    39   ar
    29    39    40   ar
    30    27    28   ar
    31    28    29   ar
    32    29    30    1
    33     3     4   ar
    34     4     5   ar
    35     5     6    1
    36     5     7   ar
    37     7     8   ar
    38     8     9   ar
    39     9    10   ar
    40    19    20    1
    41    20    15    1
    42    10     1   ar
    43    29    24   ar
    44    10     4   ar
    45    40    35   ar
    46    33    34    1
    47     6    11    1
    48     6    12    1
@<TRIPOS>MOLECULE
*****
 44 48 0 0 0
SMALL
GASTEIGER

@<TRIPOS>ATOM
      1 C         142.6155  137.6749  157.2239 C.ar    1  UNL1        0.1534
      2 N         142.1378  137.5652  158.6415 N.ar    1  UNL1       -0.2279
      3 C         142.6389  138.7625  159.3934 C.ar    1  UNL1        0.1036
      4 C         143.4262  139.6122  158.4405 C.ar    1  UNL1        0.1142
      5 C         144.1543  140.9112  158.6205 C.ar    1  UNL1        0.1432
      6 N         144.1687  141.5834  159.9613 N.pl3   1  UNL1       -0.3414
      7 N         144.8680  141.5380  157.4596 N.ar    1  UNL1       -0.2265
      8 C         144.8536  140.8658  156.1187 C.ar    1  UNL1        0.1193
      9 C         144.1254  139.5668  155.9387 C.ar    1  UNL1        0.1021
     10 N         143.4117  138.9401  157.0996 N.ar    1  UNL1       -0.2865
     11 H         143.7003  141.1720  160.7233 H       1  UNL1        0.1438
     12 H         144.6467  142.4360  160.0795 H       1  UNL1        0.1438
     13 C         142.1205  132.7649  155.5970 C.2     1  UNL1        0.2560
     14 O         142.4149  132.2756  156.9840 O.2     1  UNL1       -0.2721
     15 N         142.0970  134.2370  155.3101 N.am    1  UNL1       -0.2720
     16 C         141.8026  134.7263  153.9231 C.3     1  UNL1        0.1256
     17 C         141.7792  136.1984  153.6363 C.3     1  UNL1        0.1641
     18 O         142.0502  137.1812  154.7366 O.3     1  UNL1       -0.3451
     19 C         142.3445  136.6921  156.1236 C.3     1  UNL1        0.1913
     20 C         142.3680  135.2198  156.4104 C.3     1  UNL1        0.1308
     21 C         141.8495  131.7820  154.4967 C.3     1  UNL1        0.2272
     22 C         139.8890  130.0985  154.7666 C.3     1  UNL1        0.1748
     23 O         140.4404  131.3689  154.1903 O.3     1  UNL1       -0.3417
     24 C         142.3953  139.0582  160.8437 C.ar    1  UNL1        0.0467
     25 C         141.2603  139.9522  161.2466 C.ar    1  UNL1        0.0039
     26 C         141.0168  140.2479  162.6968 C.ar    1  UNL1        0.0047
     27 C         141.9084  139.6496  163.7443 C.ar    1  UNL1        0.0559
     28 C         143.0435  138.7556  163.3414 C.ar    1  UNL1        0.0342
     29 C         143.2870  138.4599  161.8912 C.ar    1  UNL1        0.1417
     30 F         144.4221  137.5659  161.4883 F       1  UNL1       -0.2041
     31 C         141.6649  139.9453  165.1945 C.2     1  UNL1        0.2506
     32 O         140.2643  139.9640  165.7312 O.2     1  UNL1       -0.2698
     33 N         142.8219  140.2224  166.1080 N.am    1  UNL1       -0.2658
     34 H         143.7412  140.2101  165.7558 H       1  UNL1        0.1566
     35 C         142.5783  140.5181  167.5583 C.ar    1  UNL1        0.1343
     36 C         142.0488  141.8593  167.9716 C.ar    1  UNL1        0.0383
     37 C         141.8052  142.1551  169.4218 C.ar    1  UNL1        0.0757
     38 C         142.0911  141.1096  170.4587 C.ar    1  UNL1        0.0246
     39 C         142.6205  139.7684  170.0455 C.ar    1  UNL1        0.1003
     40 N         142.8642  139.4726  168.5952 N.ar    1  UNL1       -0.2290
     41 C         141.2757  143.4963  169.8350 C.3     1  UNL1        0.4187
     42 F         140.7462  144.8375  170.2483 F       1  UNL1       -0.1659
     43 F         139.9771  143.1956  169.1470 F       1  UNL1       -0.1659
     44 F         142.5742  143.7970  170.5230 F       1  UNL1       -0.1659
@<TRIPOS>BOND
     1    22    23    1
     2    23    21    1
     3    21    13    1
     4    13    14    2
     5    13    15   am
     6    15    16    1
     7    16    17    1
     8    17    18    1
     9    18    19    1
    10    19     1    1
    11     1     2   ar
    12     2     3   ar
    13     3    24    1
    14    24    25   ar
    15    25    26   ar
    16    26    27   ar
    17    27    31    1
    18    31    32    2
    19    31    33   am
    20    33    35    1
    21    35    36   ar
    22    36    37   ar
    23    37    41    1
    24    41    42    1
    25    41    43    1
    26    41    44    1
    27    37    38   ar
    28    38    39   ar
    29    39    40   ar
    30    27    28   ar
    31    28    29   ar
    32    29    30    1
    33     3     4   ar
    34     4     5   ar
    35     5     6    1
    36     5     7   ar
    37     7     8   ar
    38     8     9   ar
    39     9    10   ar
    40    19    20    1
    41    20    15    1
    42    10     1   ar
    43    29    24   ar
    44    10     4   ar
    45    40    35   ar
    46    33    34    1
    47     6    11    1
    48     6    12    1
@<TRIPOS>MOLECULE
*****
 44 48 0 0 0
SMALL
GASTEIGER

@<TRIPOS>ATOM
      1 C         142.8788  136.5225  157.7000 C.ar    1  UNL1        0.1534
      2 N         142.6346  136.4455  159.1780 N.ar    1  UNL1       -0.2279
      3 C         142.5729  137.8461  159.7112 C.ar    1  UNL1        0.1036
      4 C         142.7790  138.7888  158.5628 C.ar    1  UNL1        0.1142
      5 C         142.8189  140.2864  158.4883 C.ar    1  UNL1        0.1432
      6 N         142.6298  141.1045  159.7313 N.pl3   1  UNL1       -0.3414
      7 N         143.0479  140.9659  157.1708 N.ar    1  UNL1       -0.2265
      8 C         143.2370  140.1479  155.9278 C.ar    1  UNL1        0.1193
      9 C         143.1971  138.6503  156.0023 C.ar    1  UNL1        0.1021
     10 N         142.9681  137.9708  157.3198 N.ar    1  UNL1       -0.2865
     11 H         142.4795  140.6585  160.5960 H       1  UNL1        0.1438
     12 H         142.6560  142.0874  159.6824 H       1  UNL1        0.1438
     13 C         144.8074  131.8206  156.6172 C.2     1  UNL1        0.2560
     14 O         145.5080  131.8025  157.9435 O.2     1  UNL1       -0.2721
     15 N         143.9750  133.0051  156.2248 N.am    1  UNL1       -0.2720
     16 C         143.2744  133.0231  154.8986 C.3     1  UNL1        0.1256
     17 C         142.4420  134.2076  154.5062 C.3     1  UNL1        0.1641
     18 O         142.3101  135.3741  155.4400 O.3     1  UNL1       -0.3451
     19 C         143.0107  135.3561  156.7662 C.3     1  UNL1        0.1913
     20 C         143.8431  134.1715  157.1586 C.3     1  UNL1        0.1308
     21 C         144.9393  130.6542  155.6834 C.3     1  UNL1        0.2272
     22 C         143.1004  129.3848  157.0092 C.3     1  UNL1        0.1748
     23 O         144.0913  129.4331  155.8841 O.3     1  UNL1       -0.3417
     24 C         142.3451  138.2358  161.1417 C.ar    1  UNL1        0.0467
     25 C         143.5150  138.4931  162.0444 C.ar    1  UNL1        0.0039
     26 C         143.2871  138.8827  163.4749 C.ar    1  UNL1        0.0047
     27 C         141.8893  139.0150  164.0027 C.ar    1  UNL1        0.0559
     28 C         140.7193  138.7577  163.1000 C.ar    1  UNL1        0.0342
     29 C         140.9471  138.3681  161.6695 C.ar    1  UNL1        0.1417
     30 F         139.7771  138.1107  160.7668 F       1  UNL1       -0.2041
     31 C         141.6615  139.4047  165.4332 C.2     1  UNL1        0.2506
     32 O         140.2788  139.3563  166.0125 O.2     1  UNL1       -0.2698
     33 N         142.8164  139.8426  166.2843 N.am    1  UNL1       -0.2658
     34 H         143.7240  139.8743  165.9040 H       1  UNL1        0.1566
     35 C         142.5885  140.2322  167.7148 C.ar    1  UNL1        0.1343
     36 C         142.0510  141.5931  168.0449 C.ar    1  UNL1        0.0383
     37 C         141.8231  141.9828  169.4753 C.ar    1  UNL1        0.0757
     38 C         142.1327  141.0115  170.5756 C.ar    1  UNL1        0.0246
     39 C         142.6702  139.6506  170.2456 C.ar    1  UNL1        0.1003
     40 N         142.8981  139.2609  168.8151 N.ar    1  UNL1       -0.2290
     41 C         141.2856  143.3437  169.8054 C.3     1  UNL1        0.4187
     42 F         140.7480  144.7046  170.1355 F       1  UNL1       -0.1659
     43 F         139.9755  142.9800  169.1718 F       1  UNL1       -0.1659
     44 F         142.5956  143.7075  170.4390 F       1  UNL1       -0.1659
@<TRIPOS>BOND
     1    22    23    1
     2    23    21    1
     3    21    13    1
     4    13    14    2
     5    13    15   am
     6    15    16    1
     7    16    17    1
     8    17    18    1
     9    18    19    1
    10    19     1    1
    11     1     2   ar
    12     2     3   ar
    13     3    24    1
    14    24    25   ar
    15    25    26   ar
    16    26    27   ar
    17    27    31    1
    18    31    32    2
    19    31    33   am
    20    33    35    1
    21    35    36   ar
    22    36    37   ar
    23    37    41    1
    24    41    42    1
    25    41    43    1
    26    41    44    1
    27    37    38   ar
    28    38    39   ar
    29    39    40   ar
    30    27    28   ar
    31    28    29   ar
    32    29    30    1
    33     3     4   ar
    34     4     5   ar
    35     5     6    1
    36     5     7   ar
    37     7     8   ar
    38     8     9   ar
    39     9    10   ar
    40    19    20    1
    41    20    15    1
    42    10     1   ar
    43    29    24   ar
    44    10     4   ar
    45    40    35   ar
    46    33    34    1
    47     6    11    1
    48     6    12    1
@<TRIPOS>MOLECULE
*****
 44 48 0 0 0
SMALL
GASTEIGER

@<TRIPOS>ATOM
      1 C         139.5437  144.7877  157.1871 C.ar    1  UNL1        0.1534
      2 N         140.0193  144.8329  158.6090 N.ar    1  UNL1       -0.2279
      3 C         139.6138  143.5510  159.2742 C.ar    1  UNL1        0.1036
      4 C         138.8877  142.7137  158.2635 C.ar    1  UNL1        0.1142
      5 C         138.2604  141.3540  158.3510 C.ar    1  UNL1        0.1432
      6 N         138.3038  140.5896  159.6409 N.pl3   1  UNL1       -0.3414
      7 N         137.5898  140.7587  157.1487 N.ar    1  UNL1       -0.2265
      8 C         137.5464  141.5230  155.8587 C.ar    1  UNL1        0.1193
      9 C         138.1737  142.8827  155.7712 C.ar    1  UNL1        0.1021
     10 N         138.8444  143.4780  156.9736 N.ar    1  UNL1       -0.2865
     11 H         138.7440  140.9804  160.4301 H       1  UNL1        0.1438
     12 H         137.8920  139.6972  159.6984 H       1  UNL1        0.1438
     13 C         138.8549  149.6973  155.6308 C.2     1  UNL1        0.2560
     14 O         138.1299  150.0006  156.9085 O.2     1  UNL1       -0.2721
     15 N         139.3896  148.3183  155.3811 N.am    1  UNL1       -0.2720
     16 C         140.1147  148.0150  154.1034 C.3     1  UNL1        0.1256
     17 C         140.6494  146.6360  153.8537 C.3     1  UNL1        0.1641
     18 O         140.4590  145.5602  154.8816 O.3     1  UNL1       -0.3451
     19 C         139.7340  145.8635  156.1592 C.3     1  UNL1        0.1913
     20 C         139.1993  147.2426  156.4090 C.3     1  UNL1        0.1308
     21 C         139.0453  150.7730  154.6029 C.3     1  UNL1        0.2272
     22 C         141.5439  151.4614  154.4202 C.3     1  UNL1        0.1748
     23 O         140.1270  151.7970  154.7804 O.3     1  UNL1       -0.3417
     24 C         139.8866  143.1729  160.6999 C.ar    1  UNL1        0.0467
     25 C         138.8849  143.4995  161.7674 C.ar    1  UNL1        0.0039
     26 C         139.1577  143.1214  163.1931 C.ar    1  UNL1        0.0047
     27 C         140.4323  142.4165  163.5513 C.ar    1  UNL1        0.0559
     28 C         141.4342  142.0898  162.4838 C.ar    1  UNL1        0.0342
     29 C         141.1614  142.4679  161.0582 C.ar    1  UNL1        0.1417
     30 F         142.1633  142.1412  159.9907 F       1  UNL1       -0.2041
     31 C         140.7051  142.0384  164.9770 C.2     1  UNL1        0.2506
     32 O         139.6012  142.0910  165.9912 O.2     1  UNL1       -0.2698
     33 N         142.0817  141.6076  165.3884 N.am    1  UNL1       -0.2658
     34 H         142.8063  141.5730  164.7228 H       1  UNL1        0.1566
     35 C         142.3545  141.2294  166.8142 C.ar    1  UNL1        0.1343
     36 C         142.7398  142.2837  167.8091 C.ar    1  UNL1        0.0383
     37 C         143.0125  141.9057  169.2348 C.ar    1  UNL1        0.0757
     38 C         142.8999  140.4733  169.6656 C.ar    1  UNL1        0.0246
     39 C         142.5145  139.4190  168.6706 C.ar    1  UNL1        0.1003
     40 N         142.2418  139.7970  167.2449 N.ar    1  UNL1       -0.2290
     41 C         143.3979  142.9600  170.2298 C.3     1  UNL1        0.4187
     42 F         143.7832  144.0143  171.2247 F       1  UNL1       -0.1659
     43 F         144.8269  142.5105  170.1526 F       1  UNL1       -0.1659
     44 F         141.9689  143.4095  170.3069 F       1  UNL1       -0.1659
@<TRIPOS>BOND
     1    22    23    1
     2    23    21    1
     3    21    13    1
     4    13    14    2
     5    13    15   am
     6    15    16    1
     7    16    17    1
     8    17    18    1
     9    18    19    1
    10    19     1    1
    11     1     2   ar
    12     2     3   ar
    13     3    24    1
    14    24    25   ar
    15    25    26   ar
    16    26    27   ar
    17    27    31    1
    18    31    32    2
    19    31    33   am
    20    33    35    1
    21    35    36   ar
    22    36    37   ar
    23    37    41    1
    24    41    42    1
    25    41    43    1
    26    41    44    1
    27    37    38   ar
    28    38    39   ar
    29    39    40   ar
    30    27    28   ar
    31    28    29   ar
    32    29    30    1
    33     3     4   ar
    34     4     5   ar
    35     5     6    1
    36     5     7   ar
    37     7     8   ar
    38     8     9   ar
    39     9    10   ar
    40    19    20    1
    41    20    15    1
    42    10     1   ar
    43    29    24   ar
    44    10     4   ar
    45    40    35   ar
    46    33    34    1
    47     6    11    1
    48     6    12    1
@<TRIPOS>MOLECULE
*****
 44 48 0 0 0
SMALL
GASTEIGER

@<TRIPOS>ATOM
      1 C         139.4685  144.4372  157.5311 C.ar    1  UNL1        0.1534
      2 N         139.7527  144.5658  158.9983 N.ar    1  UNL1       -0.2279
      3 C         139.3444  143.2848  159.6635 C.ar    1  UNL1        0.1036
      4 C         138.8079  142.3646  158.6074 C.ar    1  UNL1        0.1142
      5 C         138.2594  140.9701  158.6755 C.ar    1  UNL1        0.1432
      6 N         138.1827  140.2579  159.9934 N.pl3   1  UNL1       -0.3414
      7 N         137.7877  140.2879  157.4258 N.ar    1  UNL1       -0.2265
      8 C         137.8644  141.0001  156.1079 C.ar    1  UNL1        0.1193
      9 C         138.4128  142.3946  156.0397 C.ar    1  UNL1        0.1021
     10 N         138.8846  143.0768  157.2895 N.ar    1  UNL1       -0.2865
     11 H         138.4924  140.7057  160.8137 H       1  UNL1        0.1438
     12 H         137.8228  139.3427  160.0381 H       1  UNL1        0.1438
     13 C         138.9198  149.3143  155.8245 C.2     1  UNL1        0.2560
     14 O         138.1355  149.6571  157.0563 O.2     1  UNL1       -0.2721
     15 N         139.4491  147.9237  155.6352 N.am    1  UNL1       -0.2720
     16 C         140.2333  147.5808  154.4033 C.3     1  UNL1        0.1256
     17 C         140.7626  146.1902  154.2141 C.3     1  UNL1        0.1641
     18 O         140.5076  145.1423  155.2567 O.3     1  UNL1       -0.3451
     19 C         139.7234  145.4850  156.4885 C.3     1  UNL1        0.1913
     20 C         139.1941  146.8758  156.6778 C.3     1  UNL1        0.1308
     21 C         139.1747  150.3622  154.7819 C.3     1  UNL1        0.2272
     22 C         141.4918  151.4648  154.3750 C.3     1  UNL1        0.1748
     23 O         140.1533  151.4665  155.0520 O.3     1  UNL1       -0.3417
     24 C         139.4535  142.9779  161.1277 C.ar    1  UNL1        0.0467
     25 C         138.2966  143.2570  162.0407 C.ar    1  UNL1        0.0039
     26 C         138.4057  142.9502  163.5050 C.ar    1  UNL1        0.0047
     27 C         139.6717  142.3641  164.0562 C.ar    1  UNL1        0.0559
     28 C         140.8286  142.0850  163.1431 C.ar    1  UNL1        0.0342
     29 C         140.7195  142.3919  161.6789 C.ar    1  UNL1        0.1417
     30 F         141.8764  142.1127  160.7659 F       1  UNL1       -0.2041
     31 C         139.7808  142.0573  165.5204 C.2     1  UNL1        0.2506
     32 O         139.0382  140.8896  166.0992 O.2     1  UNL1       -0.2698
     33 N         140.6323  142.9181  166.4057 N.am    1  UNL1       -0.2658
     34 H         141.1197  143.6845  166.0258 H       1  UNL1        0.1566
     35 C         140.7414  142.6111  167.8699 C.ar    1  UNL1        0.1343
     36 C         141.5309  141.4216  168.3301 C.ar    1  UNL1        0.0383
     37 C         141.6400  141.1146  169.7943 C.ar    1  UNL1        0.0757
     38 C         140.9595  141.9971  170.7982 C.ar    1  UNL1        0.0246
     39 C         140.1699  143.1866  170.3381 C.ar    1  UNL1        0.1003
     40 N         140.0608  143.4936  168.8739 N.ar    1  UNL1       -0.2290
     41 C         142.4295  139.9251  170.2544 C.3     1  UNL1        0.4187
     42 F         143.2191  138.7356  170.7145 F       1  UNL1       -0.1659
     43 F         143.6778  140.7569  170.2626 F       1  UNL1       -0.1659
     44 F         141.1813  139.0934  170.2461 F       1  UNL1       -0.1659
@<TRIPOS>BOND
     1    22    23    1
     2    23    21    1
     3    21    13    1
     4    13    14    2
     5    13    15   am
     6    15    16    1
     7    16    17    1
     8    17    18    1
     9    18    19    1
    10    19     1    1
    11     1     2   ar
    12     2     3   ar
    13     3    24    1
    14    24    25   ar
    15    25    26   ar
    16    26    27   ar
    17    27    31    1
    18    31    32    2
    19    31    33   am
    20    33    35    1
    21    35    36   ar
    22    36    37   ar
    23    37    41    1
    24    41    42    1
    25    41    43    1
    26    41    44    1
    27    37    38   ar
    28    38    39   ar
    29    39    40   ar
    30    27    28   ar
    31    28    29   ar
    32    29    30    1
    33     3     4   ar
    34     4     5   ar
    35     5     6    1
    36     5     7   ar
    37     7     8   ar
    38     8     9   ar
    39     9    10   ar
    40    19    20    1
    41    20    15    1
    42    10     1   ar
    43    29    24   ar
    44    10     4   ar
    45    40    35   ar
    46    33    34    1
    47     6    11    1
    48     6    12    1
@<TRIPOS>MOLECULE
*****
 44 48 0 0 0
SMALL
GASTEIGER

@<TRIPOS>ATOM
      1 C         140.6247  141.8059  163.2472 C.ar    1  UNL1        0.1534
      2 N         141.5795  141.2973  162.2082 N.ar    1  UNL1       -0.2279
      3 C         141.8183  142.3995  161.2192 C.ar    1  UNL1        0.1036
      4 C         141.0111  143.5892  161.6469 C.ar    1  UNL1        0.1142
      5 C         140.8525  144.9591  161.0570 C.ar    1  UNL1        0.1432
      6 N         141.5902  145.3260  159.8035 N.pl3   1  UNL1       -0.3414
      7 N         139.9561  145.9622  161.7205 N.ar    1  UNL1       -0.2265
      8 C         139.2184  145.5953  162.9740 C.ar    1  UNL1        0.1193
      9 C         139.3770  144.2254  163.5639 C.ar    1  UNL1        0.1021
     10 N         140.2733  143.2223  162.9004 N.ar    1  UNL1       -0.2865
     11 H         142.1785  144.6676  159.3680 H       1  UNL1        0.1438
     12 H         141.4861  146.2251  159.4164 H       1  UNL1        0.1438
     13 C         140.0760  141.2772  168.3872 C.2     1  UNL1        0.2560
     14 O         140.8284  142.5574  168.5992 O.2     1  UNL1       -0.2721
     15 N         139.8369  140.7693  166.9963 N.am    1  UNL1       -0.2720
     16 C         139.0844  139.4891  166.7843 C.3     1  UNL1        0.1256
     17 C         138.8454  138.9812  165.3933 C.3     1  UNL1        0.1641
     18 O         139.3588  139.7535  164.2143 O.3     1  UNL1       -0.3451
     19 C         140.1112  141.0336  164.4262 C.3     1  UNL1        0.1913
     20 C         140.3503  141.5415  165.8173 C.3     1  UNL1        0.1308
     21 C         139.5625  140.5049  169.5662 C.3     1  UNL1        0.2272
     22 C         141.8945  139.4157  169.9210 C.3     1  UNL1        0.1748
     23 O         140.4231  139.4581  170.2095 O.3     1  UNL1       -0.3417
     24 C         142.7082  142.3250  160.0139 C.ar    1  UNL1        0.0467
     25 C         144.1687  142.6431  160.1391 C.ar    1  UNL1        0.0039
     26 C         145.0585  142.5686  158.9338 C.ar    1  UNL1        0.0047
     27 C         144.4878  142.1761  157.6033 C.ar    1  UNL1        0.0559
     28 C         143.0273  141.8580  157.4781 C.ar    1  UNL1        0.0342
     29 C         142.1375  141.9325  158.6833 C.ar    1  UNL1        0.1417
     30 F         140.6770  141.6144  158.5581 F       1  UNL1       -0.2041
     31 C         145.3777  142.1016  156.3981 C.2     1  UNL1        0.2506
     32 O         145.1142  141.0784  155.3334 O.2     1  UNL1       -0.2698
     33 N         146.5310  143.0504  156.2575 N.am    1  UNL1       -0.2658
     34 H         146.7039  143.7220  156.9563 H       1  UNL1        0.1566
     35 C         147.4208  142.9759  155.0522 C.ar    1  UNL1        0.1343
     36 C         148.6167  142.0705  155.0578 C.ar    1  UNL1        0.0383
     37 C         149.5066  141.9959  153.8525 C.ar    1  UNL1        0.0757
     38 C         149.2004  142.8267  152.6418 C.ar    1  UNL1        0.0246
     39 C         148.0045  143.7321  152.6362 C.ar    1  UNL1        0.1003
     40 N         147.1146  143.8067  153.8414 N.ar    1  UNL1       -0.2290
     41 C         150.7025  141.0905  153.8581 C.3     1  UNL1        0.4187
     42 F         151.8984  140.1852  153.8637 F       1  UNL1       -0.1659
     43 F         151.1687  141.7142  155.1401 F       1  UNL1       -0.1659
     44 F         150.2363  140.4668  152.5760 F       1  UNL1       -0.1659
@<TRIPOS>BOND
     1    22    23    1
     2    23    21    1
     3    21    13    1
     4    13    14    2
     5    13    15   am
     6    15    16    1
     7    16    17    1
     8    17    18    1
     9    18    19    1
    10    19     1    1
    11     1     2   ar
    12     2     3   ar
    13     3    24    1
    14    24    25   ar
    15    25    26   ar
    16    26    27   ar
    17    27    31    1
    18    31    32    2
    19    31    33   am
    20    33    35    1
    21    35    36   ar
    22    36    37   ar
    23    37    41    1
    24    41    42    1
    25    41    43    1
    26    41    44    1
    27    37    38   ar
    28    38    39   ar
    29    39    40   ar
    30    27    28   ar
    31    28    29   ar
    32    29    30    1
    33     3     4   ar
    34     4     5   ar
    35     5     6    1
    36     5     7   ar
    37     7     8   ar
    38     8     9   ar
    39     9    10   ar
    40    19    20    1
    41    20    15    1
    42    10     1   ar
    43    29    24   ar
    44    10     4   ar
    45    40    35   ar
    46    33    34    1
    47     6    11    1
    48     6    12    1
@<TRIPOS>MOLECULE
*****
 44 48 0 0 0
SMALL
GASTEIGER

@<TRIPOS>ATOM
      1 C         140.9968  141.7062  164.4545 C.ar    1  UNL1        0.1534
      2 N         141.1990  140.5720  163.4939 N.ar    1  UNL1       -0.2279
      3 C         140.6156  140.9746  162.1720 C.ar    1  UNL1        0.1036
      4 C         140.0528  142.3576  162.3155 C.ar    1  UNL1        0.1142
      5 C         139.3563  143.2636  161.3440 C.ar    1  UNL1        0.1432
      6 N         139.1207  142.8115  159.9333 N.pl3   1  UNL1       -0.3414
      7 N         138.8953  144.6218  161.7831 N.ar    1  UNL1       -0.2265
      8 C         139.1310  145.0740  163.1938 C.ar    1  UNL1        0.1193
      9 C         139.8275  144.1680  164.1653 C.ar    1  UNL1        0.1021
     10 N         140.2884  142.8098  163.7262 N.ar    1  UNL1       -0.2865
     11 H         139.4232  141.9200  159.6451 H       1  UNL1        0.1438
     12 H         138.6635  143.4061  159.2956 H       1  UNL1        0.1438
     13 C         140.1663  140.4390  169.4248 C.2     1  UNL1        0.2560
     14 O         138.8900  139.7531  169.0367 O.2     1  UNL1       -0.2721
     15 N         141.0121  141.0987  168.3763 N.am    1  UNL1       -0.2720
     16 C         142.2884  141.7845  168.7644 C.3     1  UNL1        0.1256
     17 C         143.1342  142.4442  167.7159 C.3     1  UNL1        0.1641
     18 O         142.7036  142.4181  166.2793 O.3     1  UNL1       -0.3451
     19 C         141.4273  141.7323  165.8911 C.3     1  UNL1        0.1913
     20 C         140.5815  141.0726  166.9397 C.3     1  UNL1        0.1308
     21 C         140.5969  140.4651  170.8614 C.3     1  UNL1        0.2272
     22 C         139.6110  142.8553  171.1169 C.3     1  UNL1        0.1748
     23 O         140.3627  141.6918  171.6924 O.3     1  UNL1       -0.3417
     24 C         140.5980  140.1406  160.9253 C.ar    1  UNL1        0.0467
     25 C         141.7360  140.2229  159.9518 C.ar    1  UNL1        0.0039
     26 C         141.7185  139.3889  158.7051 C.ar    1  UNL1        0.0047
     27 C         140.5627  138.4726  158.4320 C.ar    1  UNL1        0.0559
     28 C         139.4245  138.3903  159.4055 C.ar    1  UNL1        0.0342
     29 C         139.4421  139.2243  160.6522 C.ar    1  UNL1        0.1417
     30 F         138.3040  139.1420  161.6257 F       1  UNL1       -0.2041
     31 C         140.5451  137.6386  157.1853 C.2     1  UNL1        0.2506
     32 O         139.2646  137.4501  156.4272 O.2     1  UNL1       -0.2698
     33 N         141.8080  136.9932  156.6968 N.am    1  UNL1       -0.2658
     34 H         142.6484  137.1170  157.1944 H       1  UNL1        0.1566
     35 C         141.7903  136.1593  155.4501 C.ar    1  UNL1        0.1343
     36 C         141.8419  134.6633  155.5478 C.ar    1  UNL1        0.0383
     37 C         141.8242  133.8293  154.3011 C.ar    1  UNL1        0.0757
     38 C         141.7550  134.4912  152.9569 C.ar    1  UNL1        0.0246
     39 C         141.7034  135.9872  152.8593 C.ar    1  UNL1        0.1003
     40 N         141.7210  136.8212  154.1059 N.ar    1  UNL1       -0.2290
     41 C         141.8758  132.3334  154.3988 C.3     1  UNL1        0.4187
     42 F         141.9274  130.8375  154.4965 F       1  UNL1       -0.1659
     43 F         140.6504  132.3476  155.2638 F       1  UNL1       -0.1659
     44 F         143.1012  132.3192  153.5338 F       1  UNL1       -0.1659
@<TRIPOS>BOND
     1    22    23    1
     2    23    21    1
     3    21    13    1
     4    13    14    2
     5    13    15   am
     6    15    16    1
     7    16    17    1
     8    17    18    1
     9    18    19    1
    10    19     1    1
    11     1     2   ar
    12     2     3   ar
    13     3    24    1
    14    24    25   ar
    15    25    26   ar
    16    26    27   ar
    17    27    31    1
    18    31    32    2
    19    31    33   am
    20    33    35    1
    21    35    36   ar
    22    36    37   ar
    23    37    41    1
    24    41    42    1
    25    41    43    1
    26    41    44    1
    27    37    38   ar
    28    38    39   ar
    29    39    40   ar
    30    27    28   ar
    31    28    29   ar
    32    29    30    1
    33     3     4   ar
    34     4     5   ar
    35     5     6    1
    36     5     7   ar
    37     7     8   ar
    38     8     9   ar
    39     9    10   ar
    40    19    20    1
    41    20    15    1
    42    10     1   ar
    43    29    24   ar
    44    10     4   ar
    45    40    35   ar
    46    33    34    1
    47     6    11    1
    48     6    12    1
@<TRIPOS>MOLECULE
*****
 44 48 0 0 0
SMALL
GASTEIGER

@<TRIPOS>ATOM
      1 C         145.0288  141.7344  156.9783 C.ar    1  UNL1        0.1534
      2 N         144.8406  142.3778  158.3202 N.ar    1  UNL1       -0.2279
      3 C         144.0587  141.4316  159.1823 C.ar    1  UNL1        0.1036
      4 C         143.7636  140.2034  158.3733 C.ar    1  UNL1        0.1142
      5 C         143.0264  138.9389  158.7010 C.ar    1  UNL1        0.1432
      6 N         142.4268  138.7518  160.0631 N.pl3   1  UNL1       -0.3414
      7 N         142.8888  137.8615  157.6665 N.ar    1  UNL1       -0.2265
      8 C         143.4884  138.0486  156.3043 C.ar    1  UNL1        0.1193
      9 C         144.2256  139.3131  155.9767 C.ar    1  UNL1        0.1021
     10 N         144.3632  140.3905  157.0111 N.ar    1  UNL1       -0.2865
     11 H         142.5171  139.4589  160.7421 H       1  UNL1        0.1438
     12 H         141.9430  137.9218  160.2782 H       1  UNL1        0.1438
     13 C         149.3558  142.2246  154.1435 C.2     1  UNL1        0.2560
     14 O         150.0667  141.2781  155.0648 O.2     1  UNL1       -0.2721
     15 N         147.9187  142.5753  154.3914 N.am    1  UNL1       -0.2720
     16 C         147.2078  143.5217  153.4701 C.3     1  UNL1        0.1256
     17 C         145.7707  143.8723  153.7181 C.3     1  UNL1        0.1641
     18 O         145.0443  143.2765  154.8875 O.3     1  UNL1       -0.3451
     19 C         145.7551  142.3302  155.8089 C.3     1  UNL1        0.1913
     20 C         147.1924  141.9795  155.5608 C.3     1  UNL1        0.1308
     21 C         150.0822  142.8203  152.9740 C.3     1  UNL1        0.2272
     22 C         152.2069  144.3152  152.9372 C.3     1  UNL1        0.1748
     23 O         150.7225  144.1712  153.0979 O.3     1  UNL1       -0.3417
     24 C         143.6445  141.6715  160.6039 C.ar    1  UNL1        0.0467
     25 C         144.5149  141.1960  161.7291 C.ar    1  UNL1        0.0039
     26 C         144.1008  141.4359  163.1507 C.ar    1  UNL1        0.0047
     27 C         142.8161  142.1512  163.4471 C.ar    1  UNL1        0.0559
     28 C         141.9456  142.6267  162.3219 C.ar    1  UNL1        0.0342
     29 C         142.3597  142.3868  160.9003 C.ar    1  UNL1        0.1417
     30 F         141.4892  142.8623  159.7751 F       1  UNL1       -0.2041
     31 C         142.4019  142.3911  164.8687 C.2     1  UNL1        0.2506
     32 O         141.3605  143.4240  165.1823 O.2     1  UNL1       -0.2698
     33 N         143.0292  141.5980  165.9766 N.am    1  UNL1       -0.2658
     34 H         143.7127  140.9200  165.7708 H       1  UNL1        0.1566
     35 C         142.6149  141.8379  167.3982 C.ar    1  UNL1        0.1343
     36 C         141.2728  141.3699  167.8775 C.ar    1  UNL1        0.0383
     37 C         140.8585  141.6098  169.2990 C.ar    1  UNL1        0.0757
     38 C         141.7864  142.3177  170.2413 C.ar    1  UNL1        0.0246
     39 C         143.1285  142.7857  169.7620 C.ar    1  UNL1        0.1003
     40 N         143.5428  142.5459  168.3405 N.ar    1  UNL1       -0.2290
     41 C         139.5164  141.1417  169.7782 C.3     1  UNL1        0.4187
     42 F         138.1743  140.6737  170.2574 F       1  UNL1       -0.1659
     43 F         139.8173  139.7618  169.2731 F       1  UNL1       -0.1659
     44 F         139.2155  142.5217  170.2834 F       1  UNL1       -0.1659
@<TRIPOS>BOND
     1    22    23    1
     2    23    21    1
     3    21    13    1
     4    13    14    2
     5    13    15   am
     6    15    16    1
     7    16    17    1
     8    17    18    1
     9    18    19    1
    10    19     1    1
    11     1     2   ar
    12     2     3   ar
    13     3    24    1
    14    24    25   ar
    15    25    26   ar
    16    26    27   ar
    17    27    31    1
    18    31    32    2
    19    31    33   am
    20    33    35    1
    21    35    36   ar
    22    36    37   ar
    23    37    41    1
    24    41    42    1
    25    41    43    1
    26    41    44    1
    27    37    38   ar
    28    38    39   ar
    29    39    40   ar
    30    27    28   ar
    31    28    29   ar
    32    29    30    1
    33     3     4   ar
    34     4     5   ar
    35     5     6    1
    36     5     7   ar
    37     7     8   ar
    38     8     9   ar
    39     9    10   ar
    40    19    20    1
    41    20    15    1
    42    10     1   ar
    43    29    24   ar
    44    10     4   ar
    45    40    35   ar
    46    33    34    1
    47     6    11    1
    48     6    12    1
@<TRIPOS>MOLECULE
*****
 44 48 0 0 0
SMALL
GASTEIGER

@<TRIPOS>ATOM
      1 C         142.7707  137.5828  156.6121 C.ar    1  UNL1        0.1534
      2 N         142.2410  137.7073  158.0099 N.ar    1  UNL1       -0.2279
      3 C         142.7625  138.9882  158.5908 C.ar    1  UNL1        0.1036
      4 C         143.6145  139.6553  157.5521 C.ar    1  UNL1        0.1142
      5 C         144.3864  140.9414  157.5618 C.ar    1  UNL1        0.1432
      6 N         144.3813  141.8099  158.7847 N.pl3   1  UNL1       -0.3414
      7 N         145.1633  141.3589  156.3486 N.ar    1  UNL1       -0.2265
      8 C         145.1684  140.4903  155.1256 C.ar    1  UNL1        0.1193
      9 C         144.3966  139.2042  155.1159 C.ar    1  UNL1        0.1021
     10 N         143.6196  138.7867  156.3292 N.ar    1  UNL1       -0.2865
     11 H         143.8713  141.5359  159.5810 H       1  UNL1        0.1438
     12 H         144.8879  142.6541  158.7911 H       1  UNL1        0.1438
     13 C         142.2890  132.4899  155.7009 C.2     1  UNL1        0.2560
     14 O         142.5910  132.2035  157.1420 O.2     1  UNL1       -0.2721
     15 N         142.2584  133.9063  155.2081 N.am    1  UNL1       -0.2720
     16 C         141.9563  134.1927  153.7671 C.3     1  UNL1        0.1256
     17 C         141.9257  135.6092  153.2744 C.3     1  UNL1        0.1641
     18 O         142.1972  136.7392  154.2227 O.3     1  UNL1       -0.3451
     19 C         142.4992  136.4528  155.6638 C.3     1  UNL1        0.1913
     20 C         142.5298  135.0363  156.1565 C.3     1  UNL1        0.1308
     21 C         142.0175  131.3599  154.7525 C.3     1  UNL1        0.2272
     22 C         143.5320  130.9568  152.6803 C.3     1  UNL1        0.1748
     23 O         143.1589  130.6394  154.0981 O.3     1  UNL1       -0.3417
     24 C         142.4813  139.5103  159.9687 C.ar    1  UNL1        0.0467
     25 C         141.3275  140.4411  160.1970 C.ar    1  UNL1        0.0039
     26 C         141.0464  140.9633  161.5748 C.ar    1  UNL1        0.0047
     27 C         141.9190  140.5545  162.7243 C.ar    1  UNL1        0.0559
     28 C         143.0729  139.6236  162.4960 C.ar    1  UNL1        0.0342
     29 C         143.3540  139.1015  161.1182 C.ar    1  UNL1        0.1417
     30 F         144.5078  138.1706  160.8899 F       1  UNL1       -0.2041
     31 C         141.6379  141.0766  164.1021 C.2     1  UNL1        0.2506
     32 O         140.7881  142.2995  164.2817 O.2     1  UNL1       -0.2698
     33 N         142.2065  140.3758  165.3003 N.am    1  UNL1       -0.2658
     34 H         142.7642  139.5732  165.1824 H       1  UNL1        0.1566
     35 C         141.9253  140.8980  166.6781 C.ar    1  UNL1        0.1343
     36 C         140.6856  140.4676  167.4047 C.ar    1  UNL1        0.0383
     37 C         140.4043  140.9897  168.7824 C.ar    1  UNL1        0.0757
     38 C         141.3627  141.9423  169.4335 C.ar    1  UNL1        0.0246
     39 C         142.6024  142.3728  168.7069 C.ar    1  UNL1        0.1003
     40 N         142.8837  141.8507  167.3292 N.ar    1  UNL1       -0.2290
     41 C         139.1647  140.5592  169.5090 C.3     1  UNL1        0.4187
     42 F         137.9250  140.1287  170.2356 F       1  UNL1       -0.1659
     43 F         139.4635  141.5426  170.6015 F       1  UNL1       -0.1659
     44 F         138.8658  139.5758  168.4165 F       1  UNL1       -0.1659
@<TRIPOS>BOND
     1    22    23    1
     2    23    21    1
     3    21    13    1
     4    13    14    2
     5    13    15   am
     6    15    16    1
     7    16    17    1
     8    17    18    1
     9    18    19    1
    10    19     1    1
    11     1     2   ar
    12     2     3   ar
    13     3    24    1
    14    24    25   ar
    15    25    26   ar
    16    26    27   ar
    17    27    31    1
    18    31    32    2
    19    31    33   am
    20    33    35    1
    21    35    36   ar
    22    36    37   ar
    23    37    41    1
    24    41    42    1
    25    41    43    1
    26    41    44    1
    27    37    38   ar
    28    38    39   ar
    29    39    40   ar
    30    27    28   ar
    31    28    29   ar
    32    29    30    1
    33     3     4   ar
    34     4     5   ar
    35     5     6    1
    36     5     7   ar
    37     7     8   ar
    38     8     9   ar
    39     9    10   ar
    40    19    20    1
    41    20    15    1
    42    10     1   ar
    43    29    24   ar
    44    10     4   ar
    45    40    35   ar
    46    33    34    1
    47     6    11    1
    48     6    12    1
