@<TRIPOS>MOLECULE
*****
 26 29 0 0 0
SMALL
GASTEIGER

@<TRIPOS>ATOM
      1 C         138.6100  139.0201  164.9097 C.3     1  UNL1        0.0767
      2 C         138.0499  139.8947  163.8275 C.3     1  UNL1        0.0092
      3 C         138.7757  139.0830  162.7957 C.3     1  UNL1        0.0036
      4 C         138.0468  140.1379  162.0174 C.3     1  UNL1        0.0174
      5 C         138.1640  140.1824  160.5227 C.3     1  UNL1        0.0720
      6 N         139.0100  139.1719  159.8063 N.3     1  UNL1       -0.2738
      7 C         139.7388  138.1170  160.5846 C.3     1  UNL1        0.0720
      8 C         139.6216  138.0725  162.0793 C.3     1  UNL1        0.0174
      9 C         139.3357  138.2083  163.8780 C.3     1  UNL1        0.0092
     10 N         140.5591  142.0850  168.9168 N.3     1  UNL1       -0.2711
     11 C         140.6763  142.1295  167.4220 C.3     1  UNL1        0.0939
     12 C         139.9875  141.0930  166.5845 C.3     1  UNL1        0.1107
     13 N         139.1816  140.0121  167.2419 N.am    1  UNL1       -0.2767
     14 C         138.4928  138.9756  166.4044 C.2     1  UNL1        0.2252
     15 O         137.6869  137.8947  167.0618 O.2     1  UNL1       -0.2749
     16 C         139.0644  139.9676  168.7367 C.3     1  UNL1        0.1107
     17 C         139.7532  141.0041  169.5741 C.3     1  UNL1        0.0939
     18 C         142.6738  142.9202  170.1739 C.3     1  UNL1        0.0173
     19 C         141.2479  143.1215  169.7542 C.3     1  UNL1        0.0577
     20 C         140.5108  144.3594  170.1718 C.3     1  UNL1        0.0173
     21 C         139.1271  139.2164  158.3115 C.3     1  UNL1        0.0625
     22 C         139.8504  138.1228  157.5830 C.3     1  UNL1        0.0481
     23 C         139.9675  138.1673  156.0882 C.3     1  UNL1        0.1435
     24 O         139.3614  139.3055  155.3219 O.3     1  UNL1       -0.3537
     25 C         138.6381  140.3992  156.0505 C.3     1  UNL1        0.1435
     26 C         138.5210  140.3546  157.5453 C.3     1  UNL1        0.0481
@<TRIPOS>BOND
     1    18    19    1
     2    19    20    1
     3    19    10    1
     4    10    11    1
     5    11    12    1
     6    12    13    1
     7    13    14   am
     8    14    15    2
     9    14     1    1
    10     1     2    1
    11     2     3    1
    12     3     4    1
    13     4     5    1
    14     5     6    1
    15     6    21    1
    16    21    22    1
    17    22    23    1
    18    23    24    1
    19    24    25    1
    20    25    26    1
    21     6     7    1
    22     7     8    1
    23     3     9    1
    24    13    16    1
    25    16    17    1
    26    17    10    1
    27     9     1    1
    28     8     3    1
    29    26    21    1
@<TRIPOS>MOLECULE
*****
 26 29 0 0 0
SMALL
GASTEIGER

@<TRIPOS>ATOM
      1 C         143.1863  138.6430  165.3613 C.3     1  UNL1        0.0767
      2 C         142.2634  138.0531  164.3365 C.3     1  UNL1        0.0092
      3 C         143.0935  138.6554  163.2419 C.3     1  UNL1        0.0036
      4 C         141.9871  137.9297  162.5354 C.3     1  UNL1        0.0174
      5 C         141.9215  137.9385  161.0369 C.3     1  UNL1        0.0720
      6 N         142.9624  138.6730  160.2449 N.3     1  UNL1       -0.2738
      7 C         144.0687  139.3987  160.9514 C.3     1  UNL1        0.0720
      8 C         144.1343  139.3899  162.4499 C.3     1  UNL1        0.0174
      9 C         144.0165  139.2453  164.2667 C.3     1  UNL1        0.0092
     10 N         140.9635  141.6994  169.2300 N.3     1  UNL1       -0.2711
     11 C         140.8979  141.7082  167.7315 C.3     1  UNL1        0.0939
     12 C         141.6607  140.6864  166.9414 C.3     1  UNL1        0.1107
     13 N         142.4891  139.6560  167.6498 N.am    1  UNL1       -0.2767
     14 C         143.2519  138.6343  166.8598 C.2     1  UNL1        0.2252
     15 O         144.0803  137.6038  167.5683 O.2     1  UNL1       -0.2749
     16 C         142.5547  139.6472  169.1484 C.3     1  UNL1        0.1107
     17 C         141.7919  140.6689  169.9385 C.3     1  UNL1        0.0939
     18 C         139.1194  142.2851  170.9639 C.3     1  UNL1        0.0173
     19 C         140.2007  142.7211  170.0201 C.3     1  UNL1        0.0577
     20 C         140.5192  144.1789  169.8664 C.3     1  UNL1        0.0173
     21 C         142.8967  138.6817  158.7463 C.3     1  UNL1        0.0625
     22 C         142.5793  137.4186  158.0021 C.3     1  UNL1        0.0481
     23 C         142.5137  137.4274  156.5036 C.3     1  UNL1        0.1435
     24 O         142.7655  138.6992  155.7492 O.3     1  UNL1       -0.3537
     25 C         143.0829  139.9624  156.4935 C.3     1  UNL1        0.1435
     26 C         143.1485  139.9536  157.9920 C.3     1  UNL1        0.0481
@<TRIPOS>BOND
     1    18    19    1
     2    19    20    1
     3    19    10    1
     4    10    11    1
     5    11    12    1
     6    12    13    1
     7    13    14   am
     8    14    15    2
     9    14     1    1
    10     1     2    1
    11     2     3    1
    12     3     4    1
    13     4     5    1
    14     5     6    1
    15     6    21    1
    16    21    22    1
    17    22    23    1
    18    23    24    1
    19    24    25    1
    20    25    26    1
    21     6     7    1
    22     7     8    1
    23     3     9    1
    24    13    16    1
    25    16    17    1
    26    17    10    1
    27     9     1    1
    28     8     3    1
    29    26    21    1
@<TRIPOS>MOLECULE
*****
 26 29 0 0 0
SMALL
GASTEIGER

@<TRIPOS>ATOM
      1 C         140.6622  144.7528  162.4307 C.3     1  UNL1        0.0767
      2 C         139.9310  144.0670  163.5465 C.3     1  UNL1        0.0092
      3 C         141.2404  143.7087  164.1846 C.3     1  UNL1        0.0036
      4 C         140.1951  143.1390  165.0971 C.3     1  UNL1        0.0174
      5 C         140.6039  142.4008  166.3372 C.3     1  UNL1        0.0720
      6 N         142.0580  142.2323  166.6648 N.3     1  UNL1       -0.2738
      7 C         143.1032  142.8020  165.7522 C.3     1  UNL1        0.0720
      8 C         142.6944  143.5402  164.5121 C.3     1  UNL1        0.0174
      9 C         141.9716  144.3945  163.0688 C.3     1  UNL1        0.0092
     10 N         142.0786  144.4077  157.2226 N.3     1  UNL1       -0.2711
     11 C         142.4874  143.6695  158.4627 C.3     1  UNL1        0.0939
     12 C         141.8790  144.0306  159.7855 C.3     1  UNL1        0.1107
     13 N         140.8618  145.1299  159.8680 N.am    1  UNL1       -0.2767
     14 C         140.2534  145.4910  161.1906 C.2     1  UNL1        0.2252
     15 O         139.2363  146.5903  161.2732 O.2     1  UNL1       -0.2749
     16 C         140.4530  145.8681  158.6278 C.3     1  UNL1        0.1107
     17 C         141.0614  145.5070  157.3052 C.3     1  UNL1        0.0939
     18 C         142.5450  144.9752  154.7306 C.3     1  UNL1        0.0173
     19 C         142.6870  144.0466  155.9000 C.3     1  UNL1        0.0577
     20 C         143.4374  142.7568  155.7467 C.3     1  UNL1        0.0173
     21 C         142.4667  141.4940  167.9049 C.3     1  UNL1        0.0625
     22 C         142.1339  140.0392  168.0558 C.3     1  UNL1        0.0481
     23 C         142.5427  139.3009  169.2959 C.3     1  UNL1        0.1435
     24 O         143.2843  140.0175  170.3852 O.3     1  UNL1       -0.3537
     25 C         143.6170  141.4724  170.2344 C.3     1  UNL1        0.1435
     26 C         143.2083  142.2106  168.9942 C.3     1  UNL1        0.0481
@<TRIPOS>BOND
     1    18    19    1
     2    19    20    1
     3    19    10    1
     4    10    11    1
     5    11    12    1
     6    12    13    1
     7    13    14   am
     8    14    15    2
     9    14     1    1
    10     1     2    1
    11     2     3    1
    12     3     4    1
    13     4     5    1
    14     5     6    1
    15     6    21    1
    16    21    22    1
    17    22    23    1
    18    23    24    1
    19    24    25    1
    20    25    26    1
    21     6     7    1
    22     7     8    1
    23     3     9    1
    24    13    16    1
    25    16    17    1
    26    17    10    1
    27     9     1    1
    28     8     3    1
    29    26    21    1
@<TRIPOS>MOLECULE
*****
 26 29 0 0 0
SMALL
GASTEIGER

@<TRIPOS>ATOM
      1 C         139.0542  139.8259  161.1071 C.3     1  UNL1        0.0767
      2 C         138.6125  139.1898  162.3918 C.3     1  UNL1        0.0092
      3 C         139.3421  140.2472  163.1662 C.3     1  UNL1        0.0036
      4 C         138.7267  139.3591  164.2066 C.3     1  UNL1        0.0174
      5 C         138.9303  139.6570  165.6626 C.3     1  UNL1        0.0720
      6 N         139.7493  140.8430  166.0781 N.3     1  UNL1       -0.2738
      7 C         140.3647  141.7311  165.0376 C.3     1  UNL1        0.0720
      8 C         140.1611  141.4332  163.5817 C.3     1  UNL1        0.0174
      9 C         139.7837  140.8833  161.8816 C.3     1  UNL1        0.0092
     10 N         142.0876  137.4651  157.3026 N.3     1  UNL1       -0.2711
     11 C         142.2912  137.7630  158.7585 C.3     1  UNL1        0.0939
     12 C         141.2122  138.4506  159.5414 C.3     1  UNL1        0.1107
     13 N         139.9295  138.8404  158.8683 N.am    1  UNL1       -0.2767
     14 C         138.8506  139.5280  159.6512 C.2     1  UNL1        0.2252
     15 O         137.5679  139.9177  158.9781 O.2     1  UNL1       -0.2749
     16 C         139.7260  138.5424  157.4123 C.3     1  UNL1        0.1107
     17 C         140.8050  137.8548  156.6295 C.3     1  UNL1        0.0939
     18 C         143.4438  135.3205  156.7445 C.3     1  UNL1        0.0173
     19 C         143.1666  136.7774  156.5197 C.3     1  UNL1        0.0577
     20 C         143.9684  137.5467  155.5120 C.3     1  UNL1        0.0173
     21 C         139.9529  141.1408  167.5341 C.3     1  UNL1        0.0625
     22 C         140.5546  142.4488  167.9550 C.3     1  UNL1        0.0481
     23 C         140.7582  142.7467  169.4111 C.3     1  UNL1        0.1435
     24 O         140.3601  141.7365  170.4460 O.3     1  UNL1       -0.3537
     25 C         139.7584  140.4285  170.0250 C.3     1  UNL1        0.1435
     26 C         139.5548  140.1307  168.5691 C.3     1  UNL1        0.0481
@<TRIPOS>BOND
     1    18    19    1
     2    19    20    1
     3    19    10    1
     4    10    11    1
     5    11    12    1
     6    12    13    1
     7    13    14   am
     8    14    15    2
     9    14     1    1
    10     1     2    1
    11     2     3    1
    12     3     4    1
    13     4     5    1
    14     5     6    1
    15     6    21    1
    16    21    22    1
    17    22    23    1
    18    23    24    1
    19    24    25    1
    20    25    26    1
    21     6     7    1
    22     7     8    1
    23     3     9    1
    24    13    16    1
    25    16    17    1
    26    17    10    1
    27     9     1    1
    28     8     3    1
    29    26    21    1
@<TRIPOS>MOLECULE
*****
 26 29 0 0 0
SMALL
GASTEIGER

@<TRIPOS>ATOM
      1 C         140.7637  143.9741  161.5263 C.3     1  UNL1        0.0767
      2 C         141.3609  142.8892  162.3727 C.3     1  UNL1        0.0092
      3 C         140.6016  143.3987  163.5618 C.3     1  UNL1        0.0036
      4 C         141.3749  142.2189  164.0715 C.3     1  UNL1        0.0174
      5 C         141.2603  141.8121  165.5107 C.3     1  UNL1        0.0720
      6 N         140.3723  142.5851  166.4402 N.3     1  UNL1       -0.2738
      7 C         139.5989  143.7649  165.9304 C.3     1  UNL1        0.0720
      8 C         139.7136  144.1717  164.4912 C.3     1  UNL1        0.0174
      9 C         140.0044  144.4837  162.7154 C.3     1  UNL1        0.0092
     10 N         138.0478  142.6732  157.0340 N.3     1  UNL1       -0.2711
     11 C         137.9332  142.2664  158.4732 C.3     1  UNL1        0.0939
     12 C         138.8767  142.8356  159.4910 C.3     1  UNL1        0.1107
     13 N         139.9349  143.8117  159.0695 N.am    1  UNL1       -0.2767
     14 C         140.8783  144.3809  160.0872 C.2     1  UNL1        0.2252
     15 O         141.9365  145.3570  159.6657 O.2     1  UNL1       -0.2749
     16 C         140.0495  144.2185  157.6302 C.3     1  UNL1        0.1107
     17 C         139.1060  143.6493  156.6125 C.3     1  UNL1        0.0939
     18 C         136.1652  140.9989  156.3996 C.3     1  UNL1        0.0173
     19 C         137.1044  142.1040  156.0163 C.3     1  UNL1        0.0577
     20 C         137.1000  142.6398  154.6152 C.3     1  UNL1        0.0173
     21 C         140.2576  142.1782  167.8794 C.3     1  UNL1        0.0625
     22 C         140.4347  143.1993  168.9639 C.3     1  UNL1        0.0481
     23 C         140.3201  142.7924  170.4031 C.3     1  UNL1        0.1435
     24 O         140.0284  141.3645  170.7579 O.3     1  UNL1       -0.3537
     25 C         139.8513  140.3434  169.6733 C.3     1  UNL1        0.1435
     26 C         139.9659  140.7503  168.2342 C.3     1  UNL1        0.0481
@<TRIPOS>BOND
     1    18    19    1
     2    19    20    1
     3    19    10    1
     4    10    11    1
     5    11    12    1
     6    12    13    1
     7    13    14   am
     8    14    15    2
     9    14     1    1
    10     1     2    1
    11     2     3    1
    12     3     4    1
    13     4     5    1
    14     5     6    1
    15     6    21    1
    16    21    22    1
    17    22    23    1
    18    23    24    1
    19    24    25    1
    20    25    26    1
    21     6     7    1
    22     7     8    1
    23     3     9    1
    24    13    16    1
    25    16    17    1
    26    17    10    1
    27     9     1    1
    28     8     3    1
    29    26    21    1
@<TRIPOS>MOLECULE
*****
 26 29 0 0 0
SMALL
GASTEIGER

@<TRIPOS>ATOM
      1 C         143.5056  141.1151  161.3186 C.3     1  UNL1        0.0767
      2 C         144.1070  140.5262  162.5602 C.3     1  UNL1        0.0092
      3 C         142.8331  140.7954  163.3051 C.3     1  UNL1        0.0036
      4 C         143.7437  140.1569  164.3115 C.3     1  UNL1        0.0174
      5 C         143.2683  139.9309  165.7160 C.3     1  UNL1        0.0720
      6 N         141.8821  140.3434  166.1141 N.3     1  UNL1       -0.2738
      7 C         140.9715  140.9819  165.1077 C.3     1  UNL1        0.0720
      8 C         141.4470  141.2079  163.7032 C.3     1  UNL1        0.0174
      9 C         142.2317  141.3843  162.0635 C.3     1  UNL1        0.0092
     10 N         143.2889  138.1961  156.7709 N.3     1  UNL1       -0.2711
     11 C         142.8134  137.9701  158.1754 C.3     1  UNL1        0.0939
     12 C         143.0441  139.0184  159.2232 C.3     1  UNL1        0.1107
     13 N         143.7503  140.2928  158.8664 N.am    1  UNL1       -0.2767
     14 C         143.9810  141.3411  159.9141 C.2     1  UNL1        0.2252
     15 O         144.6873  142.6154  159.5572 O.2     1  UNL1       -0.2749
     16 C         144.2258  140.5188  157.4617 C.3     1  UNL1        0.1107
     17 C         143.9951  139.4704  156.4140 C.3     1  UNL1        0.0939
     18 C         141.8083  137.1781  154.8943 C.3     1  UNL1        0.0173
     19 C         143.0582  137.1478  155.7232 C.3     1  UNL1        0.0577
     20 C         144.0773  136.0691  155.5042 C.3     1  UNL1        0.0173
     21 C         141.4066  140.1173  167.5188 C.3     1  UNL1        0.0625
     22 C         142.3544  139.5920  168.5560 C.3     1  UNL1        0.0481
     23 C         141.8789  139.3660  169.9606 C.3     1  UNL1        0.1435
     24 O         140.4557  139.6653  170.3279 O.3     1  UNL1       -0.3537
     25 C         139.5079  140.1906  169.2906 C.3     1  UNL1        0.1435
     26 C         139.9834  140.4166  167.8861 C.3     1  UNL1        0.0481
@<TRIPOS>BOND
     1    18    19    1
     2    19    20    1
     3    19    10    1
     4    10    11    1
     5    11    12    1
     6    12    13    1
     7    13    14   am
     8    14    15    2
     9    14     1    1
    10     1     2    1
    11     2     3    1
    12     3     4    1
    13     4     5    1
    14     5     6    1
    15     6    21    1
    16    21    22    1
    17    22    23    1
    18    23    24    1
    19    24    25    1
    20    25    26    1
    21     6     7    1
    22     7     8    1
    23     3     9    1
    24    13    16    1
    25    16    17    1
    26    17    10    1
    27     9     1    1
    28     8     3    1
    29    26    21    1
@<TRIPOS>MOLECULE
*****
 26 29 0 0 0
SMALL
GASTEIGER

@<TRIPOS>ATOM
      1 C         142.4561  138.1254  159.0866 C.3     1  UNL1        0.0767
      2 C         143.3847  138.2072  160.2618 C.3     1  UNL1        0.0092
      3 C         142.2196  138.4915  161.1627 C.3     1  UNL1        0.0036
      4 C         143.4181  138.4970  162.0646 C.3     1  UNL1        0.0174
      5 C         143.2508  138.7559  163.5326 C.3     1  UNL1        0.0720
      6 N         141.8850  139.0093  164.0986 N.3     1  UNL1       -0.2738
      7 C         140.6865  139.0038  163.1967 C.3     1  UNL1        0.0720
      8 C         140.8538  138.7449  161.7288 C.3     1  UNL1        0.0174
      9 C         141.2910  138.4096  159.9875 C.3     1  UNL1        0.0092
     10 N         143.6901  133.7422  156.1686 N.3     1  UNL1       -0.2711
     11 C         143.5228  134.0011  157.6365 C.3     1  UNL1        0.0939
     12 C         143.1672  135.3759  158.1199 C.3     1  UNL1        0.1107
     13 N         142.9790  136.4917  157.1353 N.am    1  UNL1       -0.2767
     14 C         142.6234  137.8665  157.6186 C.2     1  UNL1        0.2252
     15 O         142.4352  138.9823  156.6340 O.2     1  UNL1       -0.2749
     16 C         143.1463  136.2328  155.6673 C.3     1  UNL1        0.1107
     17 C         143.5018  134.8580  155.1840 C.3     1  UNL1        0.0939
     18 C         145.0904  131.5666  156.4043 C.3     1  UNL1        0.0173
     19 C         144.0457  132.3675  155.6853 C.3     1  UNL1        0.0577
     20 C         143.3564  131.7936  154.4828 C.3     1  UNL1        0.0173
     21 C         141.7177  139.2682  165.5667 C.3     1  UNL1        0.0625
     22 C         140.4029  139.7583  166.0968 C.3     1  UNL1        0.0481
     23 C         140.2357  140.0172  167.5648 C.3     1  UNL1        0.1435
     24 O         141.3833  139.7860  168.5027 O.3     1  UNL1       -0.3537
     25 C         142.6981  139.2959  167.9725 C.3     1  UNL1        0.1435
     26 C         142.8653  139.0370  166.5045 C.3     1  UNL1        0.0481
@<TRIPOS>BOND
     1    18    19    1
     2    19    20    1
     3    19    10    1
     4    10    11    1
     5    11    12    1
     6    12    13    1
     7    13    14   am
     8    14    15    2
     9    14     1    1
    10     1     2    1
    11     2     3    1
    12     3     4    1
    13     4     5    1
    14     5     6    1
    15     6    21    1
    16    21    22    1
    17    22    23    1
    18    23    24    1
    19    24    25    1
    20    25    26    1
    21     6     7    1
    22     7     8    1
    23     3     9    1
    24    13    16    1
    25    16    17    1
    26    17    10    1
    27     9     1    1
    28     8     3    1
    29    26    21    1
@<TRIPOS>MOLECULE
*****
 26 29 0 0 0
SMALL
GASTEIGER

@<TRIPOS>ATOM
      1 C         143.1481  140.6828  162.6114 C.3     1  UNL1        0.0767
      2 C         143.7447  141.4008  163.7856 C.3     1  UNL1        0.0092
      3 C         142.5581  141.0209  164.6209 C.3     1  UNL1        0.0036
      4 C         143.4415  141.8128  165.5388 C.3     1  UNL1        0.0174
      5 C         143.0242  142.0518  166.9596 C.3     1  UNL1        0.0720
      6 N         141.7237  141.4990  167.4625 N.3     1  UNL1       -0.2738
      7 C         140.8403  140.7072  166.5446 C.3     1  UNL1        0.0720
      8 C         141.2575  140.4681  165.1238 C.3     1  UNL1        0.0174
      9 C         141.9615  140.3029  163.4468 C.3     1  UNL1        0.0092
     10 N         142.7131  143.5450  158.0433 N.3     1  UNL1       -0.2711
     11 C         142.2959  143.7840  159.4641 C.3     1  UNL1        0.0939
     12 C         142.5800  142.7503  160.5133 C.3     1  UNL1        0.1107
     13 N         143.2813  141.4774  160.1415 N.am    1  UNL1       -0.2767
     14 C         143.5653  140.4437  161.1906 C.2     1  UNL1        0.2252
     15 O         144.2666  139.1709  160.8189 O.2     1  UNL1       -0.2749
     16 C         143.6985  141.2384  158.7206 C.3     1  UNL1        0.1107
     17 C         143.4144  142.2721  157.6716 C.3     1  UNL1        0.0939
     18 C         142.5836  144.2358  155.5421 C.3     1  UNL1        0.0173
     19 C         142.4291  144.5787  156.9942 C.3     1  UNL1        0.0577
     20 C         141.9905  145.9554  157.3971 C.3     1  UNL1        0.0173
     21 C         141.3065  141.7381  168.8834 C.3     1  UNL1        0.0625
     22 C         140.3446  142.8427  169.2069 C.3     1  UNL1        0.0481
     23 C         139.9274  143.0818  170.6278 C.3     1  UNL1        0.1435
     24 O         140.4721  142.2163  171.7251 O.3     1  UNL1       -0.3537
     25 C         141.4341  141.1117  171.4016 C.3     1  UNL1        0.1435
     26 C         141.8513  140.8727  169.9807 C.3     1  UNL1        0.0481
@<TRIPOS>BOND
     1    18    19    1
     2    19    20    1
     3    19    10    1
     4    10    11    1
     5    11    12    1
     6    12    13    1
     7    13    14   am
     8    14    15    2
     9    14     1    1
    10     1     2    1
    11     2     3    1
    12     3     4    1
    13     4     5    1
    14     5     6    1
    15     6    21    1
    16    21    22    1
    17    22    23    1
    18    23    24    1
    19    24    25    1
    20    25    26    1
    21     6     7    1
    22     7     8    1
    23     3     9    1
    24    13    16    1
    25    16    17    1
    26    17    10    1
    27     9     1    1
    28     8     3    1
    29    26    21    1
@<TRIPOS>MOLECULE
*****
 26 29 0 0 0
SMALL
GASTEIGER

@<TRIPOS>ATOM
      1 C         142.7348  138.7806  162.8915 C.3     1  UNL1        0.0767
      2 C         143.2586  139.9005  163.7408 C.3     1  UNL1        0.0092
      3 C         142.2094  139.6091  164.7725 C.3     1  UNL1        0.0036
      4 C         142.9870  140.7663  165.3258 C.3     1  UNL1        0.0174
      5 C         142.6155  141.3521  166.6557 C.3     1  UNL1        0.0720
      6 N         141.4664  140.7807  167.4323 N.3     1  UNL1       -0.2738
      7 C         140.6888  139.6235  166.8790 C.3     1  UNL1        0.0720
      8 C         141.0603  139.0377  165.5491 C.3     1  UNL1        0.0174
      9 C         141.6855  138.4892  163.9232 C.3     1  UNL1        0.0092
     10 N         140.3807  138.7397  158.0227 N.3     1  UNL1       -0.2711
     11 C         140.0092  139.3255  159.3526 C.3     1  UNL1        0.0939
     12 C         140.9177  139.1439  160.5323 C.3     1  UNL1        0.1107
     13 N         142.1977  138.3764  160.3820 N.am    1  UNL1       -0.2767
     14 C         143.1063  138.1948  161.5616 C.2     1  UNL1        0.2252
     15 O         144.3863  137.4273  161.4113 O.2     1  UNL1       -0.2749
     16 C         142.5692  137.7906  159.0520 C.3     1  UNL1        0.1107
     17 C         141.6607  137.9722  157.8723 C.3     1  UNL1        0.0939
     18 C         139.3816  137.8525  155.7945 C.3     1  UNL1        0.0173
     19 C         139.4722  138.9214  156.8430 C.3     1  UNL1        0.0577
     20 C         138.6542  140.1719  156.7119 C.3     1  UNL1        0.0173
     21 C         141.0949  141.3666  168.7623 C.3     1  UNL1        0.0625
     22 C         141.3262  140.5809  170.0189 C.3     1  UNL1        0.0481
     23 C         140.9547  141.1668  171.3490 C.3     1  UNL1        0.1435
     24 O         140.3520  142.5384  171.4223 O.3     1  UNL1       -0.3537
     25 C         140.1207  143.3241  170.1656 C.3     1  UNL1        0.1435
     26 C         140.4922  142.7382  168.8357 C.3     1  UNL1        0.0481
@<TRIPOS>BOND
     1    18    19    1
     2    19    20    1
     3    19    10    1
     4    10    11    1
     5    11    12    1
     6    12    13    1
     7    13    14   am
     8    14    15    2
     9    14     1    1
    10     1     2    1
    11     2     3    1
    12     3     4    1
    13     4     5    1
    14     5     6    1
    15     6    21    1
    16    21    22    1
    17    22    23    1
    18    23    24    1
    19    24    25    1
    20    25    26    1
    21     6     7    1
    22     7     8    1
    23     3     9    1
    24    13    16    1
    25    16    17    1
    26    17    10    1
    27     9     1    1
    28     8     3    1
    29    26    21    1
