@<TRIPOS>MOLECULE
*****
 35 38 0 0 0
SMALL
GASTEIGER

@<TRIPOS>ATOM
      1 C         142.5042  138.5402  158.2565 C.ar    1  UNL1        0.1535
      2 C         141.1687  138.4352  158.9311 C.ar    1  UNL1        0.0377
      3 C         141.0656  138.5935  160.4192 C.ar    1  UNL1        0.0239
      4 C         142.2981  138.8569  161.2325 C.ar    1  UNL1        0.1059
      5 N         143.6337  138.9619  160.5579 N.ar    1  UNL1       -0.1467
      6 N         143.7367  138.8035  159.0698 N.ar    1  UNL1       -0.1329
      7 C         142.1950  139.0153  162.7206 C.ar    1  UNL1        0.0532
      8 C         142.6031  140.3055  163.3676 C.ar    1  UNL1        0.0061
      9 C         142.5001  140.4639  164.8557 C.ar    1  UNL1        0.0194
     10 C         141.9889  139.3319  165.6967 C.ar    1  UNL1        0.0859
     11 C         141.5807  138.0416  165.0497 C.ar    1  UNL1        0.0558
     12 C         141.6838  137.8833  163.5617 C.ar    1  UNL1        0.1366
     13 O         141.2757  136.5930  162.9146 O.3     1  UNL1       -0.5054
     14 H         140.9564  135.8859  163.4400 H       1  UNL1        0.2922
     15 N         141.8857  139.4902  167.1848 N.ar    1  UNL1       -0.2283
     16 C         140.6813  139.9703  167.9390 C.ar    1  UNL1        0.1001
     17 C         141.0201  139.9730  169.4002 C.ar    1  UNL1        0.0470
     18 C         142.4340  139.4947  169.5491 C.ar    1  UNL1        0.1202
     19 N         142.9690  139.1963  168.1798 N.ar    1  UNL1       -0.1637
     20 C         140.1057  140.3823  170.5166 C.3     1  UNL1        0.1668
     21 O         140.6423  140.5309  171.9094 O.3     1  UNL1       -0.3771
     22 H         140.9256  139.6644  172.2410 H       1  UNL1        0.2109
     23 C         142.7140  139.5936  155.8908 C.3     1  UNL1        0.1135
     24 N         142.6073  138.3818  156.7684 N.pl3   1  UNL1       -0.2916
     25 C         142.6037  137.0116  156.1579 C.3     1  UNL1        0.0768
     26 C         143.0055  135.8232  156.9802 C.3     1  UNL1        0.0342
     27 C         143.0019  134.4530  156.3697 C.3     1  UNL1        0.0435
     28 C         143.1579  132.9667  156.2414 C.3     1  UNL1        0.0158
     29 C         143.4616  134.1186  157.7578 C.3     1  UNL1        0.0158
     30 N         142.5964  134.2713  154.9371 N.3     1  UNL1       -0.3015
     31 C         142.1946  135.4598  154.1148 C.3     1  UNL1        0.0435
     32 C         141.7362  136.2701  152.9387 C.3     1  UNL1        0.0158
     33 C         142.0317  134.3710  153.0959 C.3     1  UNL1        0.0158
     34 C         142.1982  136.8299  154.7252 C.3     1  UNL1        0.0342
     35 H         141.8034  133.6298  154.9346 H       1  UNL1        0.1231
@<TRIPOS>BOND
     1    23    24    1
     2    24     1    1
     3     1     2   ar
     4     2     3   ar
     5     3     4   ar
     6     4     7    1
     7     7     8   ar
     8     8     9   ar
     9     9    10   ar
    10    10    15    1
    11    15    16   ar
    12    16    17   ar
    13    17    20    1
    14    20    21    1
    15    17    18   ar
    16    18    19   ar
    17    10    11   ar
    18    11    12   ar
    19    12    13    1
    20     4     5   ar
    21     5     6   ar
    22    24    25    1
    23    25    26    1
    24    26    27    1
    25    27    28    1
    26    27    29    1
    27    27    30    1
    28    30    31    1
    29    31    32    1
    30    31    33    1
    31    31    34    1
    32     6     1   ar
    33    34    25    1
    34    12     7   ar
    35    19    15   ar
    36    21    22    1
    37    13    14    1
    38    30    35    1
@<TRIPOS>MOLECULE
*****
 35 38 0 0 0
SMALL
GASTEIGER

@<TRIPOS>ATOM
      1 C         142.5164  138.5307  158.2652 C.ar    1  UNL1        0.1535
      2 C         141.1819  138.4215  158.9412 C.ar    1  UNL1        0.0377
      3 C         141.0794  138.5830  160.4289 C.ar    1  UNL1        0.0239
      4 C         142.3114  138.8538  161.2406 C.ar    1  UNL1        0.1059
      5 N         143.6459  138.9630  160.5646 N.ar    1  UNL1       -0.1467
      6 N         143.7484  138.8015  159.0768 N.ar    1  UNL1       -0.1329
      7 C         142.2088  139.0153  162.7284 C.ar    1  UNL1        0.0532
      8 C         142.6278  140.3030  163.3736 C.ar    1  UNL1        0.0061
      9 C         142.5252  140.4645  164.8614 C.ar    1  UNL1        0.0194
     10 C         142.0037  139.3383  165.7039 C.ar    1  UNL1        0.0859
     11 C         141.5847  138.0506  165.0586 C.ar    1  UNL1        0.0558
     12 C         141.6873  137.8891  163.5708 C.ar    1  UNL1        0.1366
     13 O         141.2683  136.6014  162.9255 O.3     1  UNL1       -0.5054
     14 H         140.9425  135.8979  163.4518 H       1  UNL1        0.2922
     15 N         141.9011  139.4998  167.1916 N.ar    1  UNL1       -0.2283
     16 C         140.6773  139.9196  167.9506 C.ar    1  UNL1        0.1001
     17 C         141.0241  139.9491  169.4097 C.ar    1  UNL1        0.0470
     18 C         142.4623  139.5475  169.5524 C.ar    1  UNL1        0.1202
     19 N         143.0043  139.2698  168.1816 N.ar    1  UNL1       -0.1637
     20 C         140.0958  140.3158  170.5294 C.3     1  UNL1        0.1668
     21 O         139.5843  139.2543  171.4576 O.3     1  UNL1       -0.3771
     22 H         139.0129  138.6433  170.9666 H       1  UNL1        0.2109
     23 C         142.7266  139.5790  155.8972 C.3     1  UNL1        0.1135
     24 N         142.6190  138.3692  156.7774 N.pl3   1  UNL1       -0.2916
     25 C         142.6139  136.9978  156.1697 C.3     1  UNL1        0.0768
     26 C         142.1959  136.8119  154.7412 C.3     1  UNL1        0.0342
     27 C         142.1909  135.4405  154.1336 C.3     1  UNL1        0.0435
     28 C         142.0220  134.3492  153.1185 C.3     1  UNL1        0.0158
     29 C         141.7193  136.2471  152.9602 C.3     1  UNL1        0.0158
     30 N         142.6038  134.2549  154.9545 N.3     1  UNL1       -0.3015
     31 C         143.0218  134.4408  156.3831 C.3     1  UNL1        0.0435
     32 C         143.4951  134.1105  157.7676 C.3     1  UNL1        0.0158
     33 C         143.1811  132.9547  156.2563 C.3     1  UNL1        0.0158
     34 C         143.0269  135.8122  156.9907 C.3     1  UNL1        0.0342
     35 H         143.3909  133.8220  154.4714 H       1  UNL1        0.1231
@<TRIPOS>BOND
     1    23    24    1
     2    24     1    1
     3     1     2   ar
     4     2     3   ar
     5     3     4   ar
     6     4     7    1
     7     7     8   ar
     8     8     9   ar
     9     9    10   ar
    10    10    15    1
    11    15    16   ar
    12    16    17   ar
    13    17    20    1
    14    20    21    1
    15    17    18   ar
    16    18    19   ar
    17    10    11   ar
    18    11    12   ar
    19    12    13    1
    20     4     5   ar
    21     5     6   ar
    22    24    25    1
    23    25    26    1
    24    26    27    1
    25    27    28    1
    26    27    29    1
    27    27    30    1
    28    30    31    1
    29    31    32    1
    30    31    33    1
    31    31    34    1
    32     6     1   ar
    33    34    25    1
    34    12     7   ar
    35    19    15   ar
    36    21    22    1
    37    13    14    1
    38    30    35    1
@<TRIPOS>MOLECULE
*****
 35 38 0 0 0
SMALL
GASTEIGER

@<TRIPOS>ATOM
      1 C         142.6033  138.6312  158.3953 C.ar    1  UNL1        0.1535
      2 C         141.2894  138.3788  159.0733 C.ar    1  UNL1        0.0377
      3 C         141.1767  138.5107  160.5632 C.ar    1  UNL1        0.0239
      4 C         142.3780  138.8951  161.3751 C.ar    1  UNL1        0.1059
      5 N         143.6920  139.1475  160.6970 N.ar    1  UNL1       -0.1467
      6 N         143.8046  139.0155  159.2071 N.ar    1  UNL1       -0.1329
      7 C         142.2654  139.0270  162.8650 C.ar    1  UNL1        0.0532
      8 C         140.9138  139.1010  163.5113 C.ar    1  UNL1        0.0061
      9 C         140.8011  139.2330  165.0013 C.ar    1  UNL1        0.0194
     10 C         142.0400  139.2909  165.8449 C.ar    1  UNL1        0.0859
     11 C         143.3917  139.2169  165.1986 C.ar    1  UNL1        0.0558
     12 C         143.5043  139.0850  163.7087 C.ar    1  UNL1        0.1366
     13 O         144.8559  139.0110  163.0623 O.3     1  UNL1       -0.5054
     14 H         145.6298  139.0472  163.5892 H       1  UNL1        0.2922
     15 N         141.9274  139.4229  167.3348 N.ar    1  UNL1       -0.2283
     16 C         140.7412  139.9507  168.0861 C.ar    1  UNL1        0.1001
     17 C         141.0618  139.9042  169.5506 C.ar    1  UNL1        0.0470
     18 C         142.4463  139.3477  169.7045 C.ar    1  UNL1        0.1202
     19 N         142.9812  139.0502  168.3351 N.ar    1  UNL1       -0.1637
     20 C         140.1570  140.3381  170.6655 C.3     1  UNL1        0.1668
     21 O         140.7239  140.6177  172.0259 O.3     1  UNL1       -0.3771
     22 H         141.0690  139.7954  172.4076 H       1  UNL1        0.2109
     23 C         142.8706  139.7241  156.0534 C.3     1  UNL1        0.1135
     24 N         142.7160  138.4992  156.9053 N.pl3   1  UNL1       -0.2916
     25 C         142.6741  137.1423  156.2672 C.3     1  UNL1        0.0768
     26 C         143.0347  135.9259  157.0673 C.3     1  UNL1        0.0342
     27 C         142.9928  134.5690  156.4293 C.3     1  UNL1        0.0435
     28 C         143.1041  133.0815  156.2717 C.3     1  UNL1        0.0158
     29 C         143.4340  134.1928  157.8127 C.3     1  UNL1        0.0158
     30 N         142.5903  134.4285  154.9911 N.3     1  UNL1       -0.3015
     31 C         142.2296  135.6450  154.1910 C.3     1  UNL1        0.0435
     32 C         141.8030  136.4925  153.0292 C.3     1  UNL1        0.0158
     33 C         142.0395  134.5825  153.1495 C.3     1  UNL1        0.0158
     34 C         142.2715  137.0019  154.8290 C.3     1  UNL1        0.0342
     35 H         141.7781  133.8118  154.9716 H       1  UNL1        0.1231
@<TRIPOS>BOND
     1    23    24    1
     2    24     1    1
     3     1     2   ar
     4     2     3   ar
     5     3     4   ar
     6     4     7    1
     7     7     8   ar
     8     8     9   ar
     9     9    10   ar
    10    10    15    1
    11    15    16   ar
    12    16    17   ar
    13    17    20    1
    14    20    21    1
    15    17    18   ar
    16    18    19   ar
    17    10    11   ar
    18    11    12   ar
    19    12    13    1
    20     4     5   ar
    21     5     6   ar
    22    24    25    1
    23    25    26    1
    24    26    27    1
    25    27    28    1
    26    27    29    1
    27    27    30    1
    28    30    31    1
    29    31    32    1
    30    31    33    1
    31    31    34    1
    32     6     1   ar
    33    34    25    1
    34    12     7   ar
    35    19    15   ar
    36    21    22    1
    37    13    14    1
    38    30    35    1
@<TRIPOS>MOLECULE
*****
 35 38 0 0 0
SMALL
GASTEIGER

@<TRIPOS>ATOM
      1 C         140.3907  145.0530  157.2258 C.ar    1  UNL1        0.1535
      2 C         139.5453  143.9704  157.8284 C.ar    1  UNL1        0.0377
      3 C         139.7000  143.6174  159.2780 C.ar    1  UNL1        0.0239
      4 C         140.7001  144.3470  160.1250 C.ar    1  UNL1        0.1059
      5 N         141.5455  145.4296  159.5224 N.ar    1  UNL1       -0.1467
      6 N         141.3908  145.7826  158.0728 N.ar    1  UNL1       -0.1329
      7 C         140.8548  143.9940  161.5747 C.ar    1  UNL1        0.0532
      8 C         141.1142  142.5724  161.9769 C.ar    1  UNL1        0.0061
      9 C         141.2689  142.2194  163.4266 C.ar    1  UNL1        0.0194
     10 C         141.1642  143.2880  164.4740 C.ar    1  UNL1        0.0859
     11 C         140.9047  144.7096  164.0718 C.ar    1  UNL1        0.0558
     12 C         140.7500  145.0626  162.6222 C.ar    1  UNL1        0.1366
     13 O         140.4905  146.4842  162.2199 O.3     1  UNL1       -0.5054
     14 H         140.4251  147.1517  162.8742 H       1  UNL1        0.2922
     15 N         141.3188  142.9350  165.9236 N.ar    1  UNL1       -0.2283
     16 C         142.5861  142.4920  166.5929 C.ar    1  UNL1        0.1001
     17 C         142.2839  142.2462  168.0414 C.ar    1  UNL1        0.0470
     18 C         140.8298  142.5374  168.2674 C.ar    1  UNL1        0.1202
     19 N         140.2334  142.9630  166.9585 N.ar    1  UNL1       -0.1637
     20 C         143.2636  141.7896  169.0814 C.3     1  UNL1        0.1668
     21 O         144.3178  142.7312  169.5835 O.3     1  UNL1       -0.3771
     22 H         144.9322  142.9424  168.8633 H       1  UNL1        0.2109
     23 C         140.3981  144.3482  154.7251 C.3     1  UNL1        0.1135
     24 N         140.2360  145.4060  155.7761 N.pl3   1  UNL1       -0.2916
     25 C         139.9192  146.8170  155.3775 C.3     1  UNL1        0.0768
     26 C         140.3415  147.3291  154.0324 C.3     1  UNL1        0.0342
     27 C         140.0247  148.7401  153.6338 C.3     1  UNL1        0.0435
     28 C         139.9564  149.9895  152.8067 C.3     1  UNL1        0.0158
     29 C         140.7401  148.2752  152.4001 C.3     1  UNL1        0.0158
     30 N         139.2856  149.6388  154.5803 N.3     1  UNL1       -0.3015
     31 C         138.8632  149.1267  155.9254 C.3     1  UNL1        0.0435
     32 C         138.2578  149.1015  157.2976 C.3     1  UNL1        0.0158
     33 C         138.3361  150.5288  156.0033 C.3     1  UNL1        0.0158
     34 C         139.1800  147.7158  156.3240 C.3     1  UNL1        0.0342
     35 H         138.4373  149.9387  154.0997 H       1  UNL1        0.1231
@<TRIPOS>BOND
     1    23    24    1
     2    24     1    1
     3     1     2   ar
     4     2     3   ar
     5     3     4   ar
     6     4     7    1
     7     7     8   ar
     8     8     9   ar
     9     9    10   ar
    10    10    15    1
    11    15    16   ar
    12    16    17   ar
    13    17    20    1
    14    20    21    1
    15    17    18   ar
    16    18    19   ar
    17    10    11   ar
    18    11    12   ar
    19    12    13    1
    20     4     5   ar
    21     5     6   ar
    22    24    25    1
    23    25    26    1
    24    26    27    1
    25    27    28    1
    26    27    29    1
    27    27    30    1
    28    30    31    1
    29    31    32    1
    30    31    33    1
    31    31    34    1
    32     6     1   ar
    33    34    25    1
    34    12     7   ar
    35    19    15   ar
    36    21    22    1
    37    13    14    1
    38    30    35    1
@<TRIPOS>MOLECULE
*****
 35 38 0 0 0
SMALL
GASTEIGER

@<TRIPOS>ATOM
      1 C         139.9644  144.8696  157.5593 C.ar    1  UNL1        0.1535
      2 C         141.0788  145.5162  158.3273 C.ar    1  UNL1        0.0377
      3 C         141.2871  145.1789  159.7739 C.ar    1  UNL1        0.0239
      4 C         140.3808  144.1950  160.4526 C.ar    1  UNL1        0.1059
      5 N         139.2664  143.5483  159.6847 N.ar    1  UNL1       -0.1467
      6 N         139.0582  143.8856  158.2380 N.ar    1  UNL1       -0.1329
      7 C         140.5891  143.8577  161.8994 C.ar    1  UNL1        0.0532
      8 C         141.8936  143.2721  162.3527 C.ar    1  UNL1        0.0061
      9 C         142.1018  142.9349  163.7994 C.ar    1  UNL1        0.0194
     10 C         141.0056  143.1831  164.7927 C.ar    1  UNL1        0.0859
     11 C         139.7011  143.7687  164.3393 C.ar    1  UNL1        0.0558
     12 C         139.4929  144.1059  162.8927 C.ar    1  UNL1        0.1366
     13 O         138.1884  144.6915  162.4393 O.3     1  UNL1       -0.5054
     14 H         137.5036  144.8466  163.0597 H       1  UNL1        0.2922
     15 N         141.2138  142.8459  166.2394 N.ar    1  UNL1       -0.2283
     16 C         140.2386  143.0940  167.3518 C.ar    1  UNL1        0.1001
     17 C         140.8559  142.6027  168.6276 C.ar    1  UNL1        0.0470
     18 C         142.2126  142.0510  168.3036 C.ar    1  UNL1        0.1202
     19 N         142.4338  142.2013  166.8277 N.ar    1  UNL1       -0.1637
     20 C         140.2269  142.6542  169.9883 C.3     1  UNL1        0.1668
     21 O         139.7438  143.9617  170.5423 O.3     1  UNL1       -0.3771
     22 H         140.5010  144.5494  170.6912 H       1  UNL1        0.2109
     23 C         139.6461  144.1102  155.0951 C.3     1  UNL1        0.1135
     24 N         139.7561  145.2069  156.1126 N.pl3   1  UNL1       -0.2916
     25 C         139.6579  146.6408  155.6835 C.3     1  UNL1        0.0768
     26 C         138.9814  147.6442  156.5697 C.3     1  UNL1        0.0342
     27 C         138.8832  149.0782  156.1406 C.3     1  UNL1        0.0435
     28 C         138.5431  150.5387  156.1720 C.3     1  UNL1        0.0158
     29 C         138.1869  149.1549  157.4669 C.3     1  UNL1        0.0158
     30 N         139.4613  149.5087  154.8251 N.3     1  UNL1       -0.3015
     31 C         140.1378  148.5052  153.9388 C.3     1  UNL1        0.0435
     32 C         140.8682  147.9304  152.7615 C.3     1  UNL1        0.0158
     33 C         140.2932  149.7395  153.1008 C.3     1  UNL1        0.0158
     34 C         140.2361  147.0713  154.3680 C.3     1  UNL1        0.0342
     35 H         140.1500  150.2329  155.0291 H       1  UNL1        0.1231
@<TRIPOS>BOND
     1    23    24    1
     2    24     1    1
     3     1     2   ar
     4     2     3   ar
     5     3     4   ar
     6     4     7    1
     7     7     8   ar
     8     8     9   ar
     9     9    10   ar
    10    10    15    1
    11    15    16   ar
    12    16    17   ar
    13    17    20    1
    14    20    21    1
    15    17    18   ar
    16    18    19   ar
    17    10    11   ar
    18    11    12   ar
    19    12    13    1
    20     4     5   ar
    21     5     6   ar
    22    24    25    1
    23    25    26    1
    24    26    27    1
    25    27    28    1
    26    27    29    1
    27    27    30    1
    28    30    31    1
    29    31    32    1
    30    31    33    1
    31    31    34    1
    32     6     1   ar
    33    34    25    1
    34    12     7   ar
    35    19    15   ar
    36    21    22    1
    37    13    14    1
    38    30    35    1
@<TRIPOS>MOLECULE
*****
 35 38 0 0 0
SMALL
GASTEIGER

@<TRIPOS>ATOM
      1 C         141.5496  142.5105  165.0328 C.ar    1  UNL1        0.1535
      2 C         142.4370  142.1105  163.8915 C.ar    1  UNL1        0.0377
      3 C         142.2205  142.7019  162.5302 C.ar    1  UNL1        0.0239
      4 C         141.1165  143.6932  162.3101 C.ar    1  UNL1        0.1059
      5 N         140.2291  144.0932  163.4513 N.ar    1  UNL1       -0.1467
      6 N         140.4457  143.5018  164.8127 N.ar    1  UNL1       -0.1329
      7 C         140.9000  144.2846  160.9486 C.ar    1  UNL1        0.0532
      8 C         141.1767  143.4659  159.7226 C.ar    1  UNL1        0.0061
      9 C         140.9601  144.0573  158.3612 C.ar    1  UNL1        0.0194
     10 C         140.4669  145.4674  158.2259 C.ar    1  UNL1        0.0859
     11 C         140.1901  146.2861  159.4520 C.ar    1  UNL1        0.0558
     12 C         140.4067  145.6947  160.8133 C.ar    1  UNL1        0.1366
     13 O         140.1299  146.5134  162.0394 O.3     1  UNL1       -0.5054
     14 H         139.8218  147.3943  161.9549 H       1  UNL1        0.2922
     15 N         140.2503  146.0588  156.8645 N.ar    1  UNL1       -0.2283
     16 C         141.1296  145.8581  155.6660 C.ar    1  UNL1        0.1001
     17 C         140.5392  146.6300  154.5234 C.ar    1  UNL1        0.0470
     18 C         139.2949  147.3078  155.0158 C.ar    1  UNL1        0.1202
     19 N         139.1164  146.9548  156.4627 N.ar    1  UNL1       -0.1637
     20 C         141.0953  146.7101  153.1326 C.3     1  UNL1        0.1668
     21 O         141.9239  145.5835  152.5901 O.3     1  UNL1       -0.3771
     22 H         142.7513  145.5196  153.0924 H       1  UNL1        0.2109
     23 C         143.0697  142.1313  167.1054 C.3     1  UNL1        0.1135
     24 N         141.7662  141.9191  166.3942 N.pl3   1  UNL1       -0.2916
     25 C         140.6792  141.1155  167.0444 C.3     1  UNL1        0.0768
     26 C         140.4129  141.2640  168.5130 C.3     1  UNL1        0.0342
     27 C         139.3259  140.4605  169.1632 C.3     1  UNL1        0.0435
     28 C         138.4139  139.9227  170.2258 C.3     1  UNL1        0.0158
     29 C         139.8299  141.2258  170.3507 C.3     1  UNL1        0.0158
     30 N         138.5052  139.5084  168.3447 N.3     1  UNL1       -0.3015
     31 C         138.7715  139.3598  166.8760 C.3     1  UNL1        0.0435
     32 C         138.6450  138.8736  165.4626 C.3     1  UNL1        0.0158
     33 C         137.6406  138.3874  167.0353 C.3     1  UNL1        0.0158
     34 C         139.8585  140.1634  166.2258 C.3     1  UNL1        0.0342
     35 H         137.5327  139.8013  168.4395 H       1  UNL1        0.1231
@<TRIPOS>BOND
     1    23    24    1
     2    24     1    1
     3     1     2   ar
     4     2     3   ar
     5     3     4   ar
     6     4     7    1
     7     7     8   ar
     8     8     9   ar
     9     9    10   ar
    10    10    15    1
    11    15    16   ar
    12    16    17   ar
    13    17    20    1
    14    20    21    1
    15    17    18   ar
    16    18    19   ar
    17    10    11   ar
    18    11    12   ar
    19    12    13    1
    20     4     5   ar
    21     5     6   ar
    22    24    25    1
    23    25    26    1
    24    26    27    1
    25    27    28    1
    26    27    29    1
    27    27    30    1
    28    30    31    1
    29    31    32    1
    30    31    33    1
    31    31    34    1
    32     6     1   ar
    33    34    25    1
    34    12     7   ar
    35    19    15   ar
    36    21    22    1
    37    13    14    1
    38    30    35    1
@<TRIPOS>MOLECULE
*****
 35 38 0 0 0
SMALL
GASTEIGER

@<TRIPOS>ATOM
      1 C         142.2441  140.8185  164.6005 C.ar    1  UNL1        0.1535
      2 C         141.7662  142.2376  164.6890 C.ar    1  UNL1        0.0377
      3 C         141.3430  142.9651  163.4475 C.ar    1  UNL1        0.0239
      4 C         141.3976  142.2737  162.1175 C.ar    1  UNL1        0.1059
      5 N         141.8754  140.8546  162.0290 N.ar    1  UNL1       -0.1467
      6 N         142.2986  140.1270  163.2706 N.ar    1  UNL1       -0.1329
      7 C         140.9743  143.0013  160.8759 C.ar    1  UNL1        0.0532
      8 C         139.8996  142.4283  160.0004 C.ar    1  UNL1        0.0061
      9 C         139.4763  143.1560  158.7588 C.ar    1  UNL1        0.0194
     10 C         140.1278  144.4566  158.3928 C.ar    1  UNL1        0.0859
     11 C         141.2026  145.0296  159.2685 C.ar    1  UNL1        0.0558
     12 C         141.6258  144.3019  160.5100 C.ar    1  UNL1        0.1366
     13 O         142.7006  144.8749  161.3856 O.3     1  UNL1       -0.5054
     14 H         143.1075  145.6874  161.1570 H       1  UNL1        0.2922
     15 N         139.7045  145.1843  157.1514 N.ar    1  UNL1       -0.2283
     16 C         140.0096  146.6153  156.8208 C.ar    1  UNL1        0.1001
     17 C         139.3955  146.9241  155.4876 C.ar    1  UNL1        0.0470
     18 C         138.7110  145.6840  154.9941 C.ar    1  UNL1        0.1202
     19 N         138.9020  144.6087  156.0224 N.ar    1  UNL1       -0.1637
     20 C         139.4554  148.2417  154.7732 C.3     1  UNL1        0.1668
     21 O         139.2156  149.5157  155.5280 O.3     1  UNL1       -0.3771
     22 H         138.2964  149.5402  155.8370 H       1  UNL1        0.2109
     23 C         143.7076  139.0132  165.7620 C.3     1  UNL1        0.1135
     24 N         142.6673  140.0908  165.8421 N.pl3   1  UNL1       -0.2916
     25 C         142.0503  140.4409  167.1637 C.3     1  UNL1        0.0768
     26 C         140.6373  140.0359  167.4625 C.3     1  UNL1        0.0342
     27 C         140.0202  140.3860  168.7841 C.3     1  UNL1        0.0435
     28 C         139.0042  140.4858  169.8831 C.3     1  UNL1        0.0158
     29 C         138.8714  139.6656  168.1429 C.3     1  UNL1        0.0158
     30 N         140.8162  141.1410  169.8070 N.3     1  UNL1       -0.3015
     31 C         142.2293  141.5460  169.5083 C.3     1  UNL1        0.0435
     32 C         143.5925  142.1448  169.6905 C.3     1  UNL1        0.0158
     33 C         142.0857  142.1040  170.8931 C.3     1  UNL1        0.0158
     34 C         142.8463  141.1960  168.1866 C.3     1  UNL1        0.0342
     35 H         140.8474  140.5590  170.6441 H       1  UNL1        0.1231
@<TRIPOS>BOND
     1    23    24    1
     2    24     1    1
     3     1     2   ar
     4     2     3   ar
     5     3     4   ar
     6     4     7    1
     7     7     8   ar
     8     8     9   ar
     9     9    10   ar
    10    10    15    1
    11    15    16   ar
    12    16    17   ar
    13    17    20    1
    14    20    21    1
    15    17    18   ar
    16    18    19   ar
    17    10    11   ar
    18    11    12   ar
    19    12    13    1
    20     4     5   ar
    21     5     6   ar
    22    24    25    1
    23    25    26    1
    24    26    27    1
    25    27    28    1
    26    27    29    1
    27    27    30    1
    28    30    31    1
    29    31    32    1
    30    31    33    1
    31    31    34    1
    32     6     1   ar
    33    34    25    1
    34    12     7   ar
    35    19    15   ar
    36    21    22    1
    37    13    14    1
    38    30    35    1
@<TRIPOS>MOLECULE
*****
 35 38 0 0 0
SMALL
GASTEIGER

@<TRIPOS>ATOM
      1 C         138.1918  140.8266  158.1312 C.ar    1  UNL1        0.1535
      2 C         139.3009  141.7155  158.6103 C.ar    1  UNL1        0.0377
      3 C         139.6136  141.8014  160.0748 C.ar    1  UNL1        0.0239
      4 C         138.8173  140.9984  161.0601 C.ar    1  UNL1        0.1059
      5 N         137.7082  140.1094  160.5810 N.ar    1  UNL1       -0.1467
      6 N         137.3954  140.0236  159.1165 N.ar    1  UNL1       -0.1329
      7 C         139.1301  141.0843  162.5247 C.ar    1  UNL1        0.0532
      8 C         140.5536  141.0178  162.9927 C.ar    1  UNL1        0.0061
      9 C         140.8664  141.1037  164.4573 C.ar    1  UNL1        0.0194
     10 C         139.7556  141.2561  165.4537 C.ar    1  UNL1        0.0859
     11 C         138.3320  141.3227  164.9856 C.ar    1  UNL1        0.0558
     12 C         138.0193  141.2367  163.5211 C.ar    1  UNL1        0.1366
     13 O         136.5957  141.3032  163.0530 O.3     1  UNL1       -0.5054
     14 H         135.9018  141.3985  163.6755 H       1  UNL1        0.2922
     15 N         140.0683  141.3421  166.9182 N.ar    1  UNL1       -0.2283
     16 C         140.0024  140.2114  167.9017 C.ar    1  UNL1        0.1001
     17 C         140.3952  140.7442  169.2477 C.ar    1  UNL1        0.0470
     18 C         140.7040  142.2043  169.0960 C.ar    1  UNL1        0.1202
     19 N         140.5019  142.5738  167.6564 N.ar    1  UNL1       -0.1637
     20 C         140.4668  139.9556  170.5216 C.3     1  UNL1        0.1668
     21 O         140.6215  140.6641  171.8347 O.3     1  UNL1       -0.3771
     22 H         141.4866  141.1018  171.8659 H       1  UNL1        0.2109
     23 C         137.1736  141.8740  155.9826 C.3     1  UNL1        0.1135
     24 N         137.8790  140.7407  156.6666 N.pl3   1  UNL1       -0.2916
     25 C         138.2716  139.5214  155.8861 C.3     1  UNL1        0.0768
     26 C         139.3929  138.6503  156.3697 C.3     1  UNL1        0.0342
     27 C         139.7855  137.4309  155.5892 C.3     1  UNL1        0.0435
     28 C         140.5197  136.1819  155.2009 C.3     1  UNL1        0.0158
     29 C         140.7691  137.3454  156.7184 C.3     1  UNL1        0.0158
     30 N         139.0568  137.0828  154.3252 N.3     1  UNL1       -0.3015
     31 C         137.9355  137.9539  153.8416 C.3     1  UNL1        0.0435
     32 C         136.8155  138.4630  152.9834 C.3     1  UNL1        0.0158
     33 C         137.9392  136.9114  152.7631 C.3     1  UNL1        0.0158
     34 C         137.5429  139.1732  154.6220 C.3     1  UNL1        0.0342
     35 H         138.6684  136.1489  154.4569 H       1  UNL1        0.1231
@<TRIPOS>BOND
     1    23    24    1
     2    24     1    1
     3     1     2   ar
     4     2     3   ar
     5     3     4   ar
     6     4     7    1
     7     7     8   ar
     8     8     9   ar
     9     9    10   ar
    10    10    15    1
    11    15    16   ar
    12    16    17   ar
    13    17    20    1
    14    20    21    1
    15    17    18   ar
    16    18    19   ar
    17    10    11   ar
    18    11    12   ar
    19    12    13    1
    20     4     5   ar
    21     5     6   ar
    22    24    25    1
    23    25    26    1
    24    26    27    1
    25    27    28    1
    26    27    29    1
    27    27    30    1
    28    30    31    1
    29    31    32    1
    30    31    33    1
    31    31    34    1
    32     6     1   ar
    33    34    25    1
    34    12     7   ar
    35    19    15   ar
    36    21    22    1
    37    13    14    1
    38    30    35    1
@<TRIPOS>MOLECULE
*****
 35 38 0 0 0
SMALL
GASTEIGER

@<TRIPOS>ATOM
      1 C         138.5661  140.4707  158.2536 C.ar    1  UNL1        0.1535
      2 C         139.8089  141.0833  158.8281 C.ar    1  UNL1        0.0377
      3 C         139.9999  141.1378  160.3149 C.ar    1  UNL1        0.0239
      4 C         138.9480  140.5798  161.2271 C.ar    1  UNL1        0.1059
      5 N         137.7052  139.9672  160.6526 N.ar    1  UNL1       -0.1467
      6 N         137.5142  139.9127  159.1658 N.ar    1  UNL1       -0.1329
      7 C         139.1390  140.6343  162.7140 C.ar    1  UNL1        0.0532
      8 C         140.4773  140.3137  163.3105 C.ar    1  UNL1        0.0061
      9 C         140.6683  140.3682  164.7973 C.ar    1  UNL1        0.0194
     10 C         139.5209  140.7434  165.6876 C.ar    1  UNL1        0.0859
     11 C         138.1824  141.0640  165.0910 C.ar    1  UNL1        0.0558
     12 C         137.9915  141.0095  163.6042 C.ar    1  UNL1        0.1366
     13 O         136.6531  141.3302  163.0076 O.3     1  UNL1       -0.5054
     14 H         135.9363  141.5645  163.5637 H       1  UNL1        0.2922
     15 N         139.7118  140.7979  167.1743 N.ar    1  UNL1       -0.2283
     16 C         140.3846  141.9005  167.9370 C.ar    1  UNL1        0.1001
     17 C         140.3521  141.5435  169.3935 C.ar    1  UNL1        0.0470
     18 C         139.6591  140.2202  169.5310 C.ar    1  UNL1        0.1202
     19 N         139.2634  139.7595  168.1595 N.ar    1  UNL1       -0.1637
     20 C         140.9138  142.3654  170.5155 C.3     1  UNL1        0.1668
     21 O         140.5117  142.0762  171.9314 O.3     1  UNL1       -0.3771
     22 H         139.5680  142.2693  172.0454 H       1  UNL1        0.2109
     23 C         137.7384  141.5695  156.0495 C.3     1  UNL1        0.1135
     24 N         138.3751  140.4162  156.7667 N.pl3   1  UNL1       -0.2916
     25 C         138.8209  139.2083  155.9971 C.3     1  UNL1        0.0768
     26 C         138.1320  138.8383  154.7171 C.3     1  UNL1        0.0342
     27 C         138.5778  137.6304  153.9475 C.3     1  UNL1        0.0435
     28 C         138.6366  136.5877  152.8708 C.3     1  UNL1        0.0158
     29 C         137.4636  138.1062  153.0631 C.3     1  UNL1        0.0158
     30 N         139.7123  136.7925  154.4580 N.3     1  UNL1       -0.3015
     31 C         140.4012  137.1624  155.7381 C.3     1  UNL1        0.0435
     32 C         141.3606  137.1062  156.8898 C.3     1  UNL1        0.0158
     33 C         141.1801  135.9350  155.3685 C.3     1  UNL1        0.0158
     34 C         139.9555  138.3703  156.5077 C.3     1  UNL1        0.0342
     35 H         140.4265  136.7887  153.7297 H       1  UNL1        0.1231
@<TRIPOS>BOND
     1    23    24    1
     2    24     1    1
     3     1     2   ar
     4     2     3   ar
     5     3     4   ar
     6     4     7    1
     7     7     8   ar
     8     8     9   ar
     9     9    10   ar
    10    10    15    1
    11    15    16   ar
    12    16    17   ar
    13    17    20    1
    14    20    21    1
    15    17    18   ar
    16    18    19   ar
    17    10    11   ar
    18    11    12   ar
    19    12    13    1
    20     4     5   ar
    21     5     6   ar
    22    24    25    1
    23    25    26    1
    24    26    27    1
    25    27    28    1
    26    27    29    1
    27    27    30    1
    28    30    31    1
    29    31    32    1
    30    31    33    1
    31    31    34    1
    32     6     1   ar
    33    34    25    1
    34    12     7   ar
    35    19    15   ar
    36    21    22    1
    37    13    14    1
    38    30    35    1
