@<TRIPOS>MOLECULE
*****
 32 33 0 0 0
SMALL
GASTEIGER

@<TRIPOS>ATOM
      1 C         138.0292  141.4926  162.4309 C.3     1  UNL1        0.1700
      2 O         136.7288  141.1117  163.0741 O.3     1  UNL1       -0.3793
      3 H         136.0264  141.7007  162.7570 H       1  UNL1        0.2106
      4 C         138.0799  142.6364  161.4619 C.3     1  UNL1        0.1056
      5 N         138.8201  143.8908  161.8202 N.3     1  UNL1       -0.2702
      6 C         138.3470  144.7405  162.9622 C.3     1  UNL1        0.0722
      7 C         139.6643  143.7680  164.9794 C.3     1  UNL1        0.0015
      8 C         139.2272  144.9455  164.1594 C.3     1  UNL1        0.0173
      9 C         140.0335  144.2955  161.0366 C.3     1  UNL1        0.0769
     10 C         141.2775  143.4596  161.0955 C.3     1  UNL1        0.0437
     11 C         142.1854  143.5487  162.2863 C.ar    1  UNL1       -0.0199
     12 C         142.6686  144.8865  162.7626 C.ar    1  UNL1       -0.0033
     13 C         143.5764  144.9755  163.9533 C.ar    1  UNL1        0.0119
     14 C         144.0009  143.7268  164.6679 C.ar    1  UNL1        0.0682
     15 CL        144.9087  143.8159  165.8587 Cl      1  UNL1       -0.0814
     16 C         143.5177  142.3891  164.1916 C.ar    1  UNL1        0.0679
     17 CL        143.9422  141.1404  164.9061 Cl      1  UNL1       -0.0814
     18 C         142.6099  142.3000  163.0008 C.ar    1  UNL1        0.0080
     19 C         139.2790  140.7297  162.7568 C.3     1  UNL1        0.2358
     20 O         139.2006  139.4783  163.5800 O.3     1  UNL1       -0.4728
     21 C         139.1545  139.5667  165.0766 C.ar    1  UNL1        0.1388
     22 C         140.2135  140.3297  165.8159 C.ar    1  UNL1        0.0382
     23 C         140.1674  140.4181  167.3126 C.ar    1  UNL1        0.0190
     24 C         139.0622  139.7435  168.0700 C.ar    1  UNL1        0.0646
     25 C         138.0033  138.9806  167.3308 C.ar    1  UNL1        0.0190
     26 C         138.0494  138.8922  165.8341 C.ar    1  UNL1        0.0382
     27 N         139.0161  139.8319  169.5667 N.pl3   1  UNL1       -0.2187
     28 H         138.2700  139.4221  170.0613 H       1  UNL1        0.1734
     29 S         140.1068  140.5448  170.3099 S.O2    1  UNL1        0.0558
     30 C         141.1976  141.2575  171.0530 C.3     1  UNL1        0.1996
     31 O         139.2511  141.7743  170.3866 O.2     1  UNL1       -0.1544
     32 O         140.9626  139.3152  170.2331 O.2     1  UNL1       -0.1544
@<TRIPOS>BOND
     1     7     8    1
     2     8     6    1
     3     6     5    1
     4     5     9    1
     5     9    10    1
     6    10    11    1
     7    11    12   ar
     8    12    13   ar
     9    13    14   ar
    10    14    15    1
    11    14    16   ar
    12    16    17    1
    13    16    18   ar
    14     5     4    1
    15     4     1    1
    16     1     2    1
    17     1    19    1
    18    19    20    1
    19    20    21    1
    20    21    22   ar
    21    22    23   ar
    22    23    24   ar
    23    24    27    1
    24    27    29    1
    25    29    30    1
    26    29    31    2
    27    29    32    2
    28    24    25   ar
    29    25    26   ar
    30    18    11   ar
    31    26    21   ar
    32     2     3    1
    33    27    28    1
@<TRIPOS>MOLECULE
*****
 32 33 0 0 0
SMALL
GASTEIGER

@<TRIPOS>ATOM
      1 C         137.8333  143.1769  162.4562 C.3     1  UNL1        0.1700
      2 O         138.0385  142.9584  160.9865 O.3     1  UNL1       -0.3793
      3 H         138.3031  143.7932  160.5693 H       1  UNL1        0.2106
      4 C         138.0438  144.5388  163.0485 C.3     1  UNL1        0.1056
      5 N         139.4177  145.1399  163.0774 N.3     1  UNL1       -0.2702
      6 C         139.8451  146.0865  161.9951 C.3     1  UNL1        0.0722
      7 C         141.3710  144.8899  160.2660 C.3     1  UNL1        0.0015
      8 C         140.0815  145.5777  160.6040 C.3     1  UNL1        0.0173
      9 C         140.3643  144.7945  164.1886 C.3     1  UNL1        0.0769
     10 C         141.8344  144.6807  163.9134 C.3     1  UNL1        0.0437
     11 C         142.4285  143.3526  163.5482 C.ar    1  UNL1       -0.0199
     12 C         141.5876  142.3186  162.8600 C.ar    1  UNL1       -0.0033
     13 C         142.1816  140.9905  162.4949 C.ar    1  UNL1        0.0119
     14 C         143.6167  140.6966  162.8178 C.ar    1  UNL1        0.0682
     15 CL        144.2107  139.3684  162.4526 Cl      1  UNL1       -0.0814
     16 C         144.4576  141.7306  163.5060 C.ar    1  UNL1        0.0679
     17 CL        145.8926  141.4366  163.8289 Cl      1  UNL1       -0.0814
     18 C         143.8635  143.0586  163.8711 C.ar    1  UNL1        0.0080
     19 C         137.4177  142.0334  163.3336 C.3     1  UNL1        0.2358
     20 O         138.3933  140.9396  163.6524 O.3     1  UNL1       -0.4728
     21 C         138.7419  140.6381  165.0798 C.ar    1  UNL1        0.1388
     22 C         138.1093  139.4694  165.7756 C.ar    1  UNL1        0.0382
     23 C         138.4579  139.1679  167.2030 C.ar    1  UNL1        0.0190
     24 C         139.4391  140.0351  167.9347 C.ar    1  UNL1        0.0646
     25 C         140.0716  141.2037  167.2389 C.ar    1  UNL1        0.0190
     26 C         139.7230  141.5052  165.8115 C.ar    1  UNL1        0.0382
     27 N         139.7877  139.7336  169.3621 N.pl3   1  UNL1       -0.2187
     28 H         139.6829  138.8193  169.7119 H       1  UNL1        0.1734
     29 S         140.2960  140.8251  170.2567 S.O2    1  UNL1        0.0558
     30 C         140.8043  141.9167  171.1512 C.3     1  UNL1        0.1996
     31 O         141.6961  140.3158  170.0827 O.2     1  UNL1       -0.1544
     32 O         138.8960  141.3345  170.4306 O.2     1  UNL1       -0.1544
@<TRIPOS>BOND
     1     7     8    1
     2     8     6    1
     3     6     5    1
     4     5     9    1
     5     9    10    1
     6    10    11    1
     7    11    12   ar
     8    12    13   ar
     9    13    14   ar
    10    14    15    1
    11    14    16   ar
    12    16    17    1
    13    16    18   ar
    14     5     4    1
    15     4     1    1
    16     1     2    1
    17     1    19    1
    18    19    20    1
    19    20    21    1
    20    21    22   ar
    21    22    23   ar
    22    23    24   ar
    23    24    27    1
    24    27    29    1
    25    29    30    1
    26    29    31    2
    27    29    32    2
    28    24    25   ar
    29    25    26   ar
    30    18    11   ar
    31    26    21   ar
    32     2     3    1
    33    27    28    1
@<TRIPOS>MOLECULE
*****
 32 33 0 0 0
SMALL
GASTEIGER

@<TRIPOS>ATOM
      1 C         144.7203  142.0657  162.7989 C.3     1  UNL1        0.1700
      2 O         146.2093  141.8870  162.7702 O.3     1  UNL1       -0.3793
      3 H         146.4230  141.0111  162.4123 H       1  UNL1        0.2106
      4 C         143.8235  140.9656  162.3137 C.3     1  UNL1        0.1056
      5 N         144.0309  139.5608  162.7969 N.3     1  UNL1       -0.2702
      6 C         144.5163  139.3122  164.1942 C.3     1  UNL1        0.0722
      7 C         143.5388  138.3499  166.4007 C.3     1  UNL1        0.0015
      8 C         143.5648  139.4190  165.3488 C.3     1  UNL1        0.0173
      9 C         143.7529  138.4045  161.8826 C.3     1  UNL1        0.0769
     10 C         142.3412  137.9530  161.6523 C.3     1  UNL1        0.0437
     11 C         141.2924  138.2095  162.6937 C.ar    1  UNL1       -0.0199
     12 C         141.1474  137.2752  163.8582 C.ar    1  UNL1       -0.0033
     13 C         140.0987  137.5317  164.8995 C.ar    1  UNL1        0.0119
     14 C         139.1949  138.7225  164.7763 C.ar    1  UNL1        0.0682
     15 CL        138.1462  138.9790  165.8177 Cl      1  UNL1       -0.0814
     16 C         139.3399  139.6568  163.6118 C.ar    1  UNL1        0.0679
     17 CL        138.4362  140.8477  163.4887 Cl      1  UNL1       -0.0814
     18 C         140.3886  139.4003  162.5705 C.ar    1  UNL1        0.0080
     19 C         144.1281  143.3444  163.3129 C.3     1  UNL1        0.2358
     20 O         142.7203  143.3644  163.8300 O.3     1  UNL1       -0.4728
     21 C         142.4204  142.8557  165.2089 C.ar    1  UNL1        0.1388
     22 C         143.4923  142.8569  166.2583 C.ar    1  UNL1        0.0382
     23 C         143.1925  142.3483  167.6372 C.ar    1  UNL1        0.0190
     24 C         141.8208  141.8384  167.9667 C.ar    1  UNL1        0.0646
     25 C         140.7490  141.8372  166.9173 C.ar    1  UNL1        0.0190
     26 C         141.0488  142.3459  165.5384 C.ar    1  UNL1        0.0382
     27 N         141.5209  141.3297  169.3456 N.pl3   1  UNL1       -0.2187
     28 H         142.2405  141.2678  170.0147 H       1  UNL1        0.1734
     29 S         140.1248  140.9155  169.7050 S.O2    1  UNL1        0.0558
     30 C         138.7287  140.5012  170.0645 C.3     1  UNL1        0.1996
     31 O         139.8322  142.3094  170.1754 O.2     1  UNL1       -0.1544
     32 O         140.4173  139.5215  169.2346 O.2     1  UNL1       -0.1544
@<TRIPOS>BOND
     1     7     8    1
     2     8     6    1
     3     6     5    1
     4     5     9    1
     5     9    10    1
     6    10    11    1
     7    11    12   ar
     8    12    13   ar
     9    13    14   ar
    10    14    15    1
    11    14    16   ar
    12    16    17    1
    13    16    18   ar
    14     5     4    1
    15     4     1    1
    16     1     2    1
    17     1    19    1
    18    19    20    1
    19    20    21    1
    20    21    22   ar
    21    22    23   ar
    22    23    24   ar
    23    24    27    1
    24    27    29    1
    25    29    30    1
    26    29    31    2
    27    29    32    2
    28    24    25   ar
    29    25    26   ar
    30    18    11   ar
    31    26    21   ar
    32     2     3    1
    33    27    28    1
@<TRIPOS>MOLECULE
*****
 32 33 0 0 0
SMALL
GASTEIGER

@<TRIPOS>ATOM
      1 C         141.1159  145.0637  162.2987 C.3     1  UNL1        0.1700
      2 O         141.8217  145.2242  160.9850 O.3     1  UNL1       -0.3793
      3 H         142.6589  144.7348  161.0058 H       1  UNL1        0.2106
      4 C         141.7361  144.2392  163.3875 C.3     1  UNL1        0.1056
      5 N         142.7703  143.2066  163.0497 N.3     1  UNL1       -0.2702
      6 C         144.2121  143.4523  163.3826 C.3     1  UNL1        0.0722
      7 C         145.7426  141.3977  163.8147 C.3     1  UNL1        0.0015
      8 C         144.9268  142.5428  164.3376 C.3     1  UNL1        0.0173
      9 C         142.3627  141.9283  162.3789 C.3     1  UNL1        0.0769
     10 C         141.4324  140.9796  163.0750 C.3     1  UNL1        0.0437
     11 C         141.6940  140.5809  164.4972 C.ar    1  UNL1       -0.0199
     12 C         140.9743  141.2751  165.6152 C.ar    1  UNL1       -0.0033
     13 C         141.2358  140.8763  167.0373 C.ar    1  UNL1        0.0119
     14 C         142.2170  139.7833  167.3415 C.ar    1  UNL1        0.0682
     15 CL        142.4786  139.3845  168.7637 Cl      1  UNL1       -0.0814
     16 C         142.9367  139.0890  166.2234 C.ar    1  UNL1        0.0679
     17 CL        143.9180  137.9960  166.5275 Cl      1  UNL1       -0.0814
     18 C         142.6752  139.4878  164.8013 C.ar    1  UNL1        0.0080
     19 C         139.7898  145.7278  162.5237 C.3     1  UNL1        0.2358
     20 O         138.5395  145.1136  161.9676 O.3     1  UNL1       -0.4728
     21 C         138.3176  143.6342  162.0774 C.ar    1  UNL1        0.1388
     22 C         138.6155  142.7423  160.9086 C.ar    1  UNL1        0.0382
     23 C         138.3937  141.2629  161.0184 C.ar    1  UNL1        0.0190
     24 C         137.8739  140.6753  162.2970 C.ar    1  UNL1        0.0646
     25 C         137.5760  141.5672  163.4657 C.ar    1  UNL1        0.0190
     26 C         137.7979  143.0466  163.3559 C.ar    1  UNL1        0.0382
     27 N         137.6520  139.1959  162.4068 N.pl3   1  UNL1       -0.2187
     28 H         136.7582  138.8184  162.2398 H       1  UNL1        0.1734
     29 S         138.7921  138.2915  162.7711 S.O2    1  UNL1        0.0558
     30 C         139.9320  137.3872  163.1353 C.3     1  UNL1        0.1996
     31 O         138.6056  138.6394  164.2182 O.2     1  UNL1       -0.1544
     32 O         138.9785  137.9437  161.3240 O.2     1  UNL1       -0.1544
@<TRIPOS>BOND
     1     7     8    1
     2     8     6    1
     3     6     5    1
     4     5     9    1
     5     9    10    1
     6    10    11    1
     7    11    12   ar
     8    12    13   ar
     9    13    14   ar
    10    14    15    1
    11    14    16   ar
    12    16    17    1
    13    16    18   ar
    14     5     4    1
    15     4     1    1
    16     1     2    1
    17     1    19    1
    18    19    20    1
    19    20    21    1
    20    21    22   ar
    21    22    23   ar
    22    23    24   ar
    23    24    27    1
    24    27    29    1
    25    29    30    1
    26    29    31    2
    27    29    32    2
    28    24    25   ar
    29    25    26   ar
    30    18    11   ar
    31    26    21   ar
    32     2     3    1
    33    27    28    1
@<TRIPOS>MOLECULE
*****
 32 33 0 0 0
SMALL
GASTEIGER

@<TRIPOS>ATOM
      1 C         141.1662  145.2016  162.2892 C.3     1  UNL1        0.1700
      2 O         141.5241  146.0195  163.4946 O.3     1  UNL1       -0.3793
      3 H         140.7360  146.4862  163.8143 H       1  UNL1        0.2106
      4 C         139.7584  145.2051  161.7716 C.3     1  UNL1        0.1056
      5 N         138.8015  144.1296  162.1934 N.3     1  UNL1       -0.2702
      6 C         137.7495  144.4229  163.2216 C.3     1  UNL1        0.0722
      7 C         139.4145  143.8492  165.1317 C.3     1  UNL1        0.0015
      8 C         138.1043  144.4224  164.6790 C.3     1  UNL1        0.0173
      9 C         138.8969  142.7609  161.5871 C.3     1  UNL1        0.0769
     10 C         137.8436  141.7347  161.8827 C.3     1  UNL1        0.0437
     11 C         138.1711  140.5502  162.7429 C.ar    1  UNL1       -0.0199
     12 C         138.6443  139.2737  162.1130 C.ar    1  UNL1       -0.0033
     13 C         138.9717  138.0893  162.9731 C.ar    1  UNL1        0.0119
     14 C         138.8260  138.1813  164.4632 C.ar    1  UNL1        0.0682
     15 CL        139.1534  136.9968  165.3234 Cl      1  UNL1       -0.0814
     16 C         138.3528  139.4577  165.0931 C.ar    1  UNL1        0.0679
     17 CL        138.2071  139.5498  166.5832 Cl      1  UNL1       -0.0814
     18 C         138.0254  140.6422  164.2329 C.ar    1  UNL1        0.0080
     19 C         142.2162  144.3803  161.6015 C.3     1  UNL1        0.2358
     20 O         142.3818  142.9307  161.9497 O.3     1  UNL1       -0.4728
     21 C         142.4867  142.5117  163.3861 C.ar    1  UNL1        0.1388
     22 C         143.4353  143.2205  164.3068 C.ar    1  UNL1        0.0382
     23 C         143.5402  142.8014  165.7433 C.ar    1  UNL1        0.0190
     24 C         142.6964  141.6735  166.2590 C.ar    1  UNL1        0.0646
     25 C         141.7478  140.9647  165.3383 C.ar    1  UNL1        0.0190
     26 C         141.6429  141.3838  163.9019 C.ar    1  UNL1        0.0382
     27 N         142.8013  141.2544  167.6955 N.pl3   1  UNL1       -0.2187
     28 H         143.1762  140.3735  167.9251 H       1  UNL1        0.1734
     29 S         142.3350  142.1775  168.7820 S.O2    1  UNL1        0.0558
     30 C         141.8687  143.1006  169.8685 C.3     1  UNL1        0.1996
     31 O         143.7552  142.5787  169.0507 O.2     1  UNL1       -0.1544
     32 O         140.9149  141.7763  168.5133 O.2     1  UNL1       -0.1544
@<TRIPOS>BOND
     1     7     8    1
     2     8     6    1
     3     6     5    1
     4     5     9    1
     5     9    10    1
     6    10    11    1
     7    11    12   ar
     8    12    13   ar
     9    13    14   ar
    10    14    15    1
    11    14    16   ar
    12    16    17    1
    13    16    18   ar
    14     5     4    1
    15     4     1    1
    16     1     2    1
    17     1    19    1
    18    19    20    1
    19    20    21    1
    20    21    22   ar
    21    22    23   ar
    22    23    24   ar
    23    24    27    1
    24    27    29    1
    25    29    30    1
    26    29    31    2
    27    29    32    2
    28    24    25   ar
    29    25    26   ar
    30    18    11   ar
    31    26    21   ar
    32     2     3    1
    33    27    28    1
@<TRIPOS>MOLECULE
*****
 32 33 0 0 0
SMALL
GASTEIGER

@<TRIPOS>ATOM
      1 C         142.9875  144.5665  163.0879 C.3     1  UNL1        0.1700
      2 O         144.0341  145.4985  162.5531 O.3     1  UNL1       -0.3793
      3 H         143.8316  146.4056  162.8307 H       1  UNL1        0.2106
      4 C         141.8561  145.1037  163.9133 C.3     1  UNL1        0.1056
      5 N         140.4697  145.1541  163.3430 N.3     1  UNL1       -0.2702
      6 C         140.1947  145.9632  162.1102 C.3     1  UNL1        0.0722
      7 C         140.1797  143.8577  160.5881 C.3     1  UNL1        0.0015
      8 C         140.3456  145.3393  160.7546 C.3     1  UNL1        0.0173
      9 C         139.3582  144.3954  164.0055 C.3     1  UNL1        0.0769
     10 C         139.6721  143.3593  165.0438 C.3     1  UNL1        0.0437
     11 C         139.4873  141.9039  164.7310 C.ar    1  UNL1       -0.0199
     12 C         139.8630  141.3738  163.3791 C.ar    1  UNL1       -0.0033
     13 C         139.6782  139.9185  163.0663 C.ar    1  UNL1        0.0119
     14 C         139.1176  138.9933  164.1055 C.ar    1  UNL1        0.0682
     15 CL        138.9328  137.5379  163.7927 Cl      1  UNL1       -0.0814
     16 C         138.7418  139.5235  165.4574 C.ar    1  UNL1        0.0679
     17 CL        138.1813  138.5983  166.4965 Cl      1  UNL1       -0.0814
     18 C         138.9267  140.9788  165.7701 C.ar    1  UNL1        0.0080
     19 C         143.0723  143.0974  162.7973 C.3     1  UNL1        0.2358
     20 O         143.9288  142.2118  163.6529 O.3     1  UNL1       -0.4728
     21 C         143.3521  141.5683  164.8790 C.ar    1  UNL1        0.1388
     22 C         143.0174  140.1061  164.8716 C.ar    1  UNL1        0.0382
     23 C         142.4407  139.4625  166.0977 C.ar    1  UNL1        0.0190
     24 C         142.1986  140.2812  167.3311 C.ar    1  UNL1        0.0646
     25 C         142.5332  141.7433  167.3384 C.ar    1  UNL1        0.0190
     26 C         143.1100  142.3869  166.1124 C.ar    1  UNL1        0.0382
     27 N         141.6218  139.6376  168.5572 N.pl3   1  UNL1       -0.2187
     28 H         141.1835  138.7585  168.4918 H       1  UNL1        0.1734
     29 S         141.7129  140.3336  169.8829 S.O2    1  UNL1        0.0558
     30 C         141.8039  141.0295  171.2085 C.3     1  UNL1        0.1996
     31 O         143.1384  139.8872  170.0193 O.2     1  UNL1       -0.1544
     32 O         140.2874  140.7800  169.7464 O.2     1  UNL1       -0.1544
@<TRIPOS>BOND
     1     7     8    1
     2     8     6    1
     3     6     5    1
     4     5     9    1
     5     9    10    1
     6    10    11    1
     7    11    12   ar
     8    12    13   ar
     9    13    14   ar
    10    14    15    1
    11    14    16   ar
    12    16    17    1
    13    16    18   ar
    14     5     4    1
    15     4     1    1
    16     1     2    1
    17     1    19    1
    18    19    20    1
    19    20    21    1
    20    21    22   ar
    21    22    23   ar
    22    23    24   ar
    23    24    27    1
    24    27    29    1
    25    29    30    1
    26    29    31    2
    27    29    32    2
    28    24    25   ar
    29    25    26   ar
    30    18    11   ar
    31    26    21   ar
    32     2     3    1
    33    27    28    1
@<TRIPOS>MOLECULE
*****
 32 33 0 0 0
SMALL
GASTEIGER

@<TRIPOS>ATOM
      1 C         138.7792  142.3191  162.5064 C.3     1  UNL1        0.1700
      2 O         137.2908  142.5003  162.4645 O.3     1  UNL1       -0.3793
      3 H         136.8580  141.6340  162.5200 H       1  UNL1        0.2106
      4 C         139.3643  140.9426  162.6189 C.3     1  UNL1        0.1056
      5 N         138.7037  139.9158  163.4903 N.3     1  UNL1       -0.2702
      6 C         138.1641  140.3076  164.8339 C.3     1  UNL1        0.0722
      7 C         137.8440  138.6140  166.7780 C.3     1  UNL1        0.0015
      8 C         138.6814  139.6400  166.0736 C.3     1  UNL1        0.0173
      9 C         138.5828  138.4972  163.0181 C.3     1  UNL1        0.0769
     10 C         139.6767  137.5135  163.3107 C.3     1  UNL1        0.0437
     11 C         141.0689  137.9997  163.5854 C.ar    1  UNL1       -0.0199
     12 C         141.9116  138.5335  162.4652 C.ar    1  UNL1       -0.0033
     13 C         143.3037  139.0197  162.7400 C.ar    1  UNL1        0.0119
     14 C         143.8532  138.9720  164.1349 C.ar    1  UNL1        0.0682
     15 CL        145.2454  139.4582  164.4095 Cl      1  UNL1       -0.0814
     16 C         143.0106  138.4382  165.2551 C.ar    1  UNL1        0.0679
     17 CL        143.5601  138.3905  166.6500 Cl      1  UNL1       -0.0814
     18 C         141.6184  137.9520  164.9803 C.ar    1  UNL1        0.0080
     19 C         139.6825  143.5146  162.4357 C.3     1  UNL1        0.2358
     20 O         140.0647  144.2411  163.6912 O.3     1  UNL1       -0.4728
     21 C         140.7170  143.4976  164.8189 C.ar    1  UNL1        0.1388
     22 C         139.9951  143.3295  166.1231 C.ar    1  UNL1        0.0382
     23 C         140.6473  142.5860  167.2509 C.ar    1  UNL1        0.0190
     24 C         142.0214  142.0107  167.0745 C.ar    1  UNL1        0.0646
     25 C         142.7432  142.1789  165.7704 C.ar    1  UNL1        0.0190
     26 C         142.0910  142.9223  164.6426 C.ar    1  UNL1        0.0382
     27 N         142.6736  141.2673  168.2023 N.pl3   1  UNL1       -0.2187
     28 H         143.3108  140.5418  168.0103 H       1  UNL1        0.1734
     29 S         142.3550  141.6293  169.6227 S.O2    1  UNL1        0.0558
     30 C         142.0364  141.9913  171.0431 C.3     1  UNL1        0.1996
     31 O         141.4816  140.4152  169.7363 O.2     1  UNL1       -0.1544
     32 O         143.2284  142.8434  169.5092 O.2     1  UNL1       -0.1544
@<TRIPOS>BOND
     1     7     8    1
     2     8     6    1
     3     6     5    1
     4     5     9    1
     5     9    10    1
     6    10    11    1
     7    11    12   ar
     8    12    13   ar
     9    13    14   ar
    10    14    15    1
    11    14    16   ar
    12    16    17    1
    13    16    18   ar
    14     5     4    1
    15     4     1    1
    16     1     2    1
    17     1    19    1
    18    19    20    1
    19    20    21    1
    20    21    22   ar
    21    22    23   ar
    22    23    24   ar
    23    24    27    1
    24    27    29    1
    25    29    30    1
    26    29    31    2
    27    29    32    2
    28    24    25   ar
    29    25    26   ar
    30    18    11   ar
    31    26    21   ar
    32     2     3    1
    33    27    28    1
@<TRIPOS>MOLECULE
*****
 32 33 0 0 0
SMALL
GASTEIGER

@<TRIPOS>ATOM
      1 C         138.4958  139.1184  161.5709 C.3     1  UNL1        0.1700
      2 O         138.4029  137.6229  161.5028 O.3     1  UNL1       -0.3793
      3 H         138.8466  137.3075  160.7000 H       1  UNL1        0.2106
      4 C         139.2011  139.8762  160.4854 C.3     1  UNL1        0.1056
      5 N         140.6822  140.0989  160.5668 N.3     1  UNL1       -0.2702
      6 C         141.2174  141.4113  161.0577 C.3     1  UNL1        0.0722
      7 C         142.2779  142.8415  162.9499 C.3     1  UNL1        0.0015
      8 C         141.6910  141.5454  162.4746 C.3     1  UNL1        0.0173
      9 C         141.6281  139.0091  160.1573 C.3     1  UNL1        0.0769
     10 C         141.8748  137.8468  161.0729 C.3     1  UNL1        0.0437
     11 C         142.2116  138.0863  162.5149 C.ar    1  UNL1       -0.0199
     12 C         141.2259  137.7231  163.5856 C.ar    1  UNL1       -0.0033
     13 C         141.5628  137.9626  165.0275 C.ar    1  UNL1        0.0119
     14 C         142.8853  138.5652  165.3987 C.ar    1  UNL1        0.0682
     15 CL        143.2221  138.8047  166.8407 Cl      1  UNL1       -0.0814
     16 C         143.8710  138.9284  164.3280 C.ar    1  UNL1        0.0679
     17 CL        145.1935  139.5310  164.6992 Cl      1  UNL1       -0.0814
     18 C         143.5341  138.6889  162.8861 C.ar    1  UNL1        0.0080
     19 C         137.8835  139.8562  162.7245 C.3     1  UNL1        0.2358
     20 O         138.7250  140.7770  163.5575 O.3     1  UNL1       -0.4728
     21 C         138.9191  140.4995  165.0188 C.ar    1  UNL1        0.1388
     22 C         139.8969  141.3136  165.8134 C.ar    1  UNL1        0.0382
     23 C         140.0910  141.0361  167.2746 C.ar    1  UNL1        0.0190
     24 C         139.3074  139.9445  167.9413 C.ar    1  UNL1        0.0646
     25 C         138.3298  139.1304  167.1467 C.ar    1  UNL1        0.0190
     26 C         138.1356  139.4079  165.6854 C.ar    1  UNL1        0.0382
     27 N         139.5016  139.6669  169.4026 N.pl3   1  UNL1       -0.2187
     28 H         139.0911  138.8709  169.8112 H       1  UNL1        0.1734
     29 S         140.3212  140.6024  170.2412 S.O2    1  UNL1        0.0558
     30 C         141.1408  141.5378  171.0798 C.3     1  UNL1        0.1996
     31 O         141.5266  139.7347  170.0311 O.2     1  UNL1       -0.1544
     32 O         139.1159  141.4701  170.4513 O.2     1  UNL1       -0.1544
@<TRIPOS>BOND
     1     7     8    1
     2     8     6    1
     3     6     5    1
     4     5     9    1
     5     9    10    1
     6    10    11    1
     7    11    12   ar
     8    12    13   ar
     9    13    14   ar
    10    14    15    1
    11    14    16   ar
    12    16    17    1
    13    16    18   ar
    14     5     4    1
    15     4     1    1
    16     1     2    1
    17     1    19    1
    18    19    20    1
    19    20    21    1
    20    21    22   ar
    21    22    23   ar
    22    23    24   ar
    23    24    27    1
    24    27    29    1
    25    29    30    1
    26    29    31    2
    27    29    32    2
    28    24    25   ar
    29    25    26   ar
    30    18    11   ar
    31    26    21   ar
    32     2     3    1
    33    27    28    1
@<TRIPOS>MOLECULE
*****
 32 33 0 0 0
SMALL
GASTEIGER

@<TRIPOS>ATOM
      1 C         140.6719  137.9823  162.5732 C.3     1  UNL1        0.1700
      2 O         141.1896  136.6865  163.1232 O.3     1  UNL1       -0.3793
      3 H         142.1187  136.5750  162.8678 H       1  UNL1        0.2106
      4 C         141.5742  138.8688  161.7670 C.3     1  UNL1        0.1056
      5 N         142.4149  139.9051  162.4520 N.3     1  UNL1       -0.2702
      6 C         142.5730  139.8767  163.9434 C.3     1  UNL1        0.0722
      7 C         145.1494  139.6477  164.1875 C.3     1  UNL1        0.0015
      8 C         143.7649  139.2053  164.5586 C.3     1  UNL1        0.0173
      9 C         143.0976  140.9699  161.6456 C.3     1  UNL1        0.0769
     10 C         142.3649  142.2310  161.2954 C.3     1  UNL1        0.0437
     11 C         141.4604  142.8773  162.3026 C.ar    1  UNL1       -0.0199
     12 C         142.0432  143.6800  163.4278 C.ar    1  UNL1       -0.0033
     13 C         141.1387  144.3262  164.4349 C.ar    1  UNL1        0.0119
     14 C         139.6516  144.1698  164.3169 C.ar    1  UNL1        0.0682
     15 CL        138.7472  144.8161  165.3241 Cl      1  UNL1       -0.0814
     16 C         139.0689  143.3672  163.1917 C.ar    1  UNL1        0.0679
     17 CL        137.5817  143.2107  163.0736 Cl      1  UNL1       -0.0814
     18 C         139.9733  142.7209  162.1845 C.ar    1  UNL1        0.0080
     19 C         139.2518  138.3918  162.8294 C.3     1  UNL1        0.2358
     20 O         138.9591  139.6825  163.5355 O.3     1  UNL1       -0.4728
     21 C         138.9484  139.7315  165.0346 C.ar    1  UNL1        0.1388
     22 C         139.7904  140.7404  165.7580 C.ar    1  UNL1        0.0382
     23 C         139.7797  140.7895  167.2572 C.ar    1  UNL1        0.0190
     24 C         138.9270  139.8297  168.0330 C.ar    1  UNL1        0.0646
     25 C         138.0850  138.8209  167.3096 C.ar    1  UNL1        0.0190
     26 C         138.0957  138.7719  165.8104 C.ar    1  UNL1        0.0382
     27 N         138.9162  139.8788  169.5321 N.pl3   1  UNL1       -0.2187
     28 H         138.1772  139.4638  170.0330 H       1  UNL1        0.1734
     29 S         140.0316  140.5603  170.2682 S.O2    1  UNL1        0.0558
     30 C         141.1469  141.2417  171.0042 C.3     1  UNL1        0.1996
     31 O         139.1769  141.7820  170.4322 O.2     1  UNL1       -0.1544
     32 O         140.8862  139.3386  170.1042 O.2     1  UNL1       -0.1544
@<TRIPOS>BOND
     1     7     8    1
     2     8     6    1
     3     6     5    1
     4     5     9    1
     5     9    10    1
     6    10    11    1
     7    11    12   ar
     8    12    13   ar
     9    13    14   ar
    10    14    15    1
    11    14    16   ar
    12    16    17    1
    13    16    18   ar
    14     5     4    1
    15     4     1    1
    16     1     2    1
    17     1    19    1
    18    19    20    1
    19    20    21    1
    20    21    22   ar
    21    22    23   ar
    22    23    24   ar
    23    24    27    1
    24    27    29    1
    25    29    30    1
    26    29    31    2
    27    29    32    2
    28    24    25   ar
    29    25    26   ar
    30    18    11   ar
    31    26    21   ar
    32     2     3    1
    33    27    28    1
