@<TRIPOS>MOLECULE
*****
 34 38 0 0 0
SMALL
GASTEIGER

@<TRIPOS>ATOM
      1 N         140.0582  138.2974  161.8119 N.3     1  UNL1       -0.2695
      2 C         140.2307  137.8548  163.2347 C.3     1  UNL1        0.0939
      3 C         141.4965  138.1771  163.9722 C.3     1  UNL1        0.1107
      4 N         142.5898  138.9421  163.2869 N.am    1  UNL1       -0.2764
      5 C         143.8555  139.2644  164.0245 C.2     1  UNL1        0.2301
      6 O         144.9488  140.0294  163.3393 O.2     1  UNL1       -0.2745
      7 C         142.4173  139.3848  161.8641 C.3     1  UNL1        0.1107
      8 C         141.1515  139.0624  161.1267 C.3     1  UNL1        0.0939
      9 C         138.7925  137.9751  161.0743 C.3     1  UNL1        0.0770
     10 C         137.6216  138.9096  161.1501 C.3     1  UNL1        0.0467
     11 C         138.3158  141.3022  160.4131 C.ar    1  UNL1        0.1349
     12 C         138.5319  142.7504  160.7387 C.ar    1  UNL1        0.0428
     13 C         138.2697  143.2542  162.1270 C.ar    1  UNL1        0.0782
     14 C         137.7914  142.3099  163.1897 C.ar    1  UNL1        0.0274
     15 C         137.5754  140.8617  162.8641 C.ar    1  UNL1       -0.0017
     16 C         137.8376  140.3579  161.4757 C.ar    1  UNL1        0.0130
     17 C         137.6183  143.0898  164.4592 C.3     1  UNL1        0.2356
     18 O         137.9895  144.5163  164.1811 O.3     1  UNL1       -0.4404
     19 C         138.3921  144.6179  162.7397 C.2     1  UNL1        0.3414
     20 O         138.8387  145.8644  162.0348 O.2     1  UNL1       -0.2449
     21 C         137.9874  141.5109  157.8443 C.3     1  UNL1        0.2525
     22 O         138.5781  140.7985  159.0247 O.3     1  UNL1       -0.4717
     23 C         144.0280  138.8217  165.4473 C.3     1  UNL1        0.1116
     24 C         143.2993  139.5342  166.5479 C.ar    1  UNL1       -0.0130
     25 C         143.0076  138.8240  167.8365 C.ar    1  UNL1       -0.0022
     26 C         142.2789  139.5364  168.9373 C.ar    1  UNL1        0.0190
     27 C         141.8418  140.9590  168.7493 C.ar    1  UNL1        0.0862
     28 C         142.1335  141.6691  167.4606 C.ar    1  UNL1        0.0190
     29 C         142.8623  140.9567  166.3599 C.ar    1  UNL1       -0.0022
     30 N         141.1131  141.6714  169.8499 N.ar    1  UNL1       -0.1886
     31 C         140.1510  142.8093  169.6779 C.ar    1  UNL1        0.2258
     32 N         139.6619  143.2121  171.0375 N.ar    1  UNL1       -0.1045
     33 N         140.3217  142.3233  172.0498 N.ar    1  UNL1       -0.0222
     34 N         141.2186  141.3711  171.3157 N.ar    1  UNL1       -0.0385
@<TRIPOS>BOND
     1    21    22    1
     2    22    11    1
     3    11    12   ar
     4    12    13   ar
     5    13    14   ar
     6    14    15   ar
     7    15    16   ar
     8    16    10    1
     9    10     9    1
    10     9     1    1
    11     1     2    1
    12     2     3    1
    13     3     4    1
    14     4     5   am
    15     5     6    2
    16     5    23    1
    17    23    24    1
    18    24    25   ar
    19    25    26   ar
    20    26    27   ar
    21    27    30    1
    22    30    31   ar
    23    31    32   ar
    24    32    33   ar
    25    33    34   ar
    26    27    28   ar
    27    28    29   ar
    28     4     7    1
    29     7     8    1
    30    14    17    1
    31    17    18    1
    32    18    19    1
    33    19    20    2
    34    16    11   ar
    35     8     1    1
    36    19    13    1
    37    29    24   ar
    38    34    30   ar
@<TRIPOS>MOLECULE
*****
 34 38 0 0 0
SMALL
GASTEIGER

@<TRIPOS>ATOM
      1 N         138.8041  141.0816  160.3802 N.3     1  UNL1       -0.2695
      2 C         137.9856  140.9640  161.6317 C.3     1  UNL1        0.0939
      3 C         138.2942  139.8889  162.6313 C.3     1  UNL1        0.1107
      4 N         139.4212  138.9316  162.3794 N.am    1  UNL1       -0.2764
      5 C         139.7298  137.8567  163.3790 C.2     1  UNL1        0.2301
      6 O         140.8568  136.8994  163.1272 O.2     1  UNL1       -0.2745
      7 C         140.2397  139.0494  161.1279 C.3     1  UNL1        0.1107
      8 C         139.9311  140.1244  160.1283 C.3     1  UNL1        0.0939
      9 C         138.4956  142.1566  159.3806 C.3     1  UNL1        0.0770
     10 C         139.3370  143.3974  159.3297 C.3     1  UNL1        0.0467
     11 C         140.1236  144.3669  161.6081 C.ar    1  UNL1        0.1349
     12 C         141.2056  144.5815  162.6246 C.ar    1  UNL1        0.0428
     13 C         142.5832  144.0411  162.3790 C.ar    1  UNL1        0.0782
     14 C         142.8787  143.2861  161.1170 C.ar    1  UNL1        0.0274
     15 C         141.7967  143.0715  160.1005 C.ar    1  UNL1       -0.0017
     16 C         140.4191  143.6119  160.3462 C.ar    1  UNL1        0.0130
     17 C         144.3206  142.8739  161.1502 C.3     1  UNL1        0.2356
     18 O         144.9162  143.3741  162.4328 O.3     1  UNL1       -0.4404
     19 C         143.8424  144.0955  163.1922 C.2     1  UNL1        0.3414
     20 O         144.0002  144.7554  164.5300 O.2     1  UNL1       -0.2449
     21 C         137.9052  144.3428  162.9602 C.3     1  UNL1        0.2525
     22 O         138.7460  144.9073  161.8538 O.3     1  UNL1       -0.4717
     23 C         138.9113  137.7390  164.6305 C.3     1  UNL1        0.1116
     24 C         139.2157  138.6134  165.8107 C.ar    1  UNL1       -0.0130
     25 C         138.2073  138.7664  166.9106 C.ar    1  UNL1       -0.0022
     26 C         138.5117  139.6408  168.0908 C.ar    1  UNL1        0.0190
     27 C         139.8244  140.3622  168.1711 C.ar    1  UNL1        0.0862
     28 C         140.8327  140.2092  167.0711 C.ar    1  UNL1        0.0190
     29 C         140.5284  139.3348  165.8909 C.ar    1  UNL1       -0.0022
     30 N         140.1288  141.2366  169.3512 N.ar    1  UNL1       -0.1886
     31 C         140.4932  142.6908  169.3004 C.ar    1  UNL1        0.2258
     32 N         140.7118  143.1632  170.7072 N.ar    1  UNL1       -0.1045
     33 N         140.4825  142.0010  171.6275 N.ar    1  UNL1       -0.0222
     34 N         140.1222  140.8103  170.7893 N.ar    1  UNL1       -0.0385
@<TRIPOS>BOND
     1    21    22    1
     2    22    11    1
     3    11    12   ar
     4    12    13   ar
     5    13    14   ar
     6    14    15   ar
     7    15    16   ar
     8    16    10    1
     9    10     9    1
    10     9     1    1
    11     1     2    1
    12     2     3    1
    13     3     4    1
    14     4     5   am
    15     5     6    2
    16     5    23    1
    17    23    24    1
    18    24    25   ar
    19    25    26   ar
    20    26    27   ar
    21    27    30    1
    22    30    31   ar
    23    31    32   ar
    24    32    33   ar
    25    33    34   ar
    26    27    28   ar
    27    28    29   ar
    28     4     7    1
    29     7     8    1
    30    14    17    1
    31    17    18    1
    32    18    19    1
    33    19    20    2
    34    16    11   ar
    35     8     1    1
    36    19    13    1
    37    29    24   ar
    38    34    30   ar
@<TRIPOS>MOLECULE
*****
 34 38 0 0 0
SMALL
GASTEIGER

@<TRIPOS>ATOM
      1 N         143.0336  141.3766  161.3098 N.3     1  UNL1       -0.2695
      2 C         143.5440  141.4394  162.7189 C.3     1  UNL1        0.0939
      3 C         143.2219  140.3363  163.6831 C.3     1  UNL1        0.1107
      4 N         142.3895  139.1705  163.2382 N.am    1  UNL1       -0.2764
      5 C         142.0675  138.0675  164.2024 C.2     1  UNL1        0.2301
      6 O         141.2351  136.9017  163.7575 O.2     1  UNL1       -0.2745
      7 C         141.8791  139.1077  161.8290 C.3     1  UNL1        0.1107
      8 C         142.2012  140.2107  160.8649 C.3     1  UNL1        0.0939
      9 C         143.3556  142.4796  160.3456 C.3     1  UNL1        0.0770
     10 C         142.5050  143.7145  160.3075 C.3     1  UNL1        0.0467
     11 C         142.0098  144.7172  162.6526 C.ar    1  UNL1        0.1349
     12 C         141.0472  144.9996  163.7678 C.ar    1  UNL1        0.0428
     13 C         139.6172  144.5617  163.6531 C.ar    1  UNL1        0.0782
     14 C         139.1497  143.8414  162.4232 C.ar    1  UNL1        0.0274
     15 C         140.1123  143.5590  161.3080 C.ar    1  UNL1       -0.0017
     16 C         141.5424  143.9969  161.4228 C.ar    1  UNL1        0.0130
     17 C         137.6915  143.5334  162.5925 C.3     1  UNL1        0.2356
     18 O         137.2577  144.0633  163.9270 O.3     1  UNL1       -0.4404
     19 C         138.4478  144.6989  164.5825 C.2     1  UNL1        0.3414
     20 O         138.4655  145.3562  165.9307 O.2     1  UNL1       -0.2449
     21 C         144.1297  145.1227  164.0988 C.3     1  UNL1        0.2525
     22 O         143.4399  145.1552  162.7673 O.3     1  UNL1       -0.4717
     23 C         142.5779  138.1303  165.6115 C.3     1  UNL1        0.1116
     24 C         142.0158  139.1394  166.5684 C.ar    1  UNL1       -0.0130
     25 C         142.8790  139.7006  167.6592 C.ar    1  UNL1       -0.0022
     26 C         142.3170  140.7098  168.6162 C.ar    1  UNL1        0.0190
     27 C         140.8917  141.1578  168.4823 C.ar    1  UNL1        0.0862
     28 C         140.0285  140.5965  167.3914 C.ar    1  UNL1        0.0190
     29 C         140.5905  139.5874  166.4345 C.ar    1  UNL1       -0.0022
     30 N         140.3296  142.1669  169.4392 N.ar    1  UNL1       -0.1886
     31 C         140.6124  143.6400  169.4339 C.ar    1  UNL1        0.2258
     32 N         139.8435  144.2635  170.5608 N.ar    1  UNL1       -0.1045
     33 N         139.0855  143.1759  171.2627 N.ar    1  UNL1       -0.0222
     34 N         139.3860  141.8801  170.5694 N.ar    1  UNL1       -0.0385
@<TRIPOS>BOND
     1    21    22    1
     2    22    11    1
     3    11    12   ar
     4    12    13   ar
     5    13    14   ar
     6    14    15   ar
     7    15    16   ar
     8    16    10    1
     9    10     9    1
    10     9     1    1
    11     1     2    1
    12     2     3    1
    13     3     4    1
    14     4     5   am
    15     5     6    2
    16     5    23    1
    17    23    24    1
    18    24    25   ar
    19    25    26   ar
    20    26    27   ar
    21    27    30    1
    22    30    31   ar
    23    31    32   ar
    24    32    33   ar
    25    33    34   ar
    26    27    28   ar
    27    28    29   ar
    28     4     7    1
    29     7     8    1
    30    14    17    1
    31    17    18    1
    32    18    19    1
    33    19    20    2
    34    16    11   ar
    35     8     1    1
    36    19    13    1
    37    29    24   ar
    38    34    30   ar
@<TRIPOS>MOLECULE
*****
 34 38 0 0 0
SMALL
GASTEIGER

@<TRIPOS>ATOM
      1 N         138.5882  140.3323  159.9768 N.3     1  UNL1       -0.2695
      2 C         137.7555  140.3038  161.2240 C.3     1  UNL1        0.0939
      3 C         138.1401  139.4057  162.3623 C.3     1  UNL1        0.1107
      4 N         139.3574  138.5361  162.2532 N.am    1  UNL1       -0.2764
      5 C         139.7420  137.6381  163.3915 C.2     1  UNL1        0.2301
      6 O         140.9593  136.7684  163.2825 O.2     1  UNL1       -0.2745
      7 C         140.1902  138.5646  161.0059 C.3     1  UNL1        0.1107
      8 C         139.8056  139.4627  159.8677 C.3     1  UNL1        0.0939
      9 C         138.2037  141.2303  158.8385 C.3     1  UNL1        0.0770
     10 C         138.5603  142.6867  158.8787 C.3     1  UNL1        0.0467
     11 C         141.0961  143.0783  159.2871 C.ar    1  UNL1        0.1349
     12 C         142.2115  143.5531  160.1704 C.ar    1  UNL1        0.0428
     13 C         141.9066  144.1114  161.5288 C.ar    1  UNL1        0.0782
     14 C         140.4863  144.1948  162.0039 C.ar    1  UNL1        0.0274
     15 C         139.3708  143.7200  161.1206 C.ar    1  UNL1       -0.0017
     16 C         139.6758  143.1617  159.7621 C.ar    1  UNL1        0.0130
     17 C         140.4924  144.7879  163.3817 C.3     1  UNL1        0.2356
     18 O         141.9165  145.0711  163.7581 O.3     1  UNL1       -0.4404
     19 C         142.7906  144.6530  162.6130 C.2     1  UNL1        0.3414
     20 O         144.2860  144.7580  162.5612 O.2     1  UNL1       -0.2449
     21 C         142.2919  141.3209  157.7933 C.3     1  UNL1        0.2525
     22 O         141.4011  142.5199  157.9286 O.3     1  UNL1       -0.4717
     23 C         138.9092  137.6096  164.6388 C.3     1  UNL1        0.1116
     24 C         139.1936  138.5733  165.7525 C.ar    1  UNL1       -0.0130
     25 C         138.2171  138.7244  166.8811 C.ar    1  UNL1       -0.0022
     26 C         138.5015  139.6881  167.9949 C.ar    1  UNL1        0.0190
     27 C         139.7622  140.5008  167.9800 C.ar    1  UNL1        0.0862
     28 C         140.7386  140.3496  166.8513 C.ar    1  UNL1        0.0190
     29 C         140.4543  139.3859  165.7376 C.ar    1  UNL1       -0.0022
     30 N         140.0466  141.4645  169.0937 N.ar    1  UNL1       -0.1886
     31 C         140.8724  142.7124  168.9905 C.ar    1  UNL1        0.2258
     32 N         140.8912  143.3686  170.3392 N.ar    1  UNL1       -0.1045
     33 N         140.0770  142.5262  171.2760 N.ar    1  UNL1       -0.0222
     34 N         139.5550  141.3494  170.5062 N.ar    1  UNL1       -0.0385
@<TRIPOS>BOND
     1    21    22    1
     2    22    11    1
     3    11    12   ar
     4    12    13   ar
     5    13    14   ar
     6    14    15   ar
     7    15    16   ar
     8    16    10    1
     9    10     9    1
    10     9     1    1
    11     1     2    1
    12     2     3    1
    13     3     4    1
    14     4     5   am
    15     5     6    2
    16     5    23    1
    17    23    24    1
    18    24    25   ar
    19    25    26   ar
    20    26    27   ar
    21    27    30    1
    22    30    31   ar
    23    31    32   ar
    24    32    33   ar
    25    33    34   ar
    26    27    28   ar
    27    28    29   ar
    28     4     7    1
    29     7     8    1
    30    14    17    1
    31    17    18    1
    32    18    19    1
    33    19    20    2
    34    16    11   ar
    35     8     1    1
    36    19    13    1
    37    29    24   ar
    38    34    30   ar
@<TRIPOS>MOLECULE
*****
 34 38 0 0 0
SMALL
GASTEIGER

@<TRIPOS>ATOM
      1 N         143.6103  140.5362  160.7195 N.3     1  UNL1       -0.2695
      2 C         144.2098  140.6793  162.0871 C.3     1  UNL1        0.0939
      3 C         143.7019  139.8378  163.2203 C.3     1  UNL1        0.1107
      4 N         142.5946  138.8535  162.9860 N.am    1  UNL1       -0.2764
      5 C         142.0867  138.0121  164.1192 C.2     1  UNL1        0.2301
      6 O         140.9794  137.0278  163.8849 O.2     1  UNL1       -0.2745
      7 C         141.9951  138.7105  161.6184 C.3     1  UNL1        0.1107
      8 C         142.5030  139.5519  160.4852 C.3     1  UNL1        0.0939
      9 C         144.1181  141.3776  159.5863 C.3     1  UNL1        0.0770
     10 C         143.5159  142.7262  159.3249 C.3     1  UNL1        0.0467
     11 C         140.9466  142.9382  159.6475 C.ar    1  UNL1        0.1349
     12 C         139.7731  143.4051  160.4568 C.ar    1  UNL1        0.0428
     13 C         139.9953  144.1270  161.7527 C.ar    1  UNL1        0.0782
     14 C         141.3911  144.3819  162.2394 C.ar    1  UNL1        0.0274
     15 C         142.5646  143.9151  161.4302 C.ar    1  UNL1       -0.0017
     16 C         142.3423  143.1932  160.1342 C.ar    1  UNL1        0.0130
     17 C         141.3001  145.1135  163.5458 C.3     1  UNL1        0.2356
     18 O         139.8481  145.3106  163.8664 O.3     1  UNL1       -0.4404
     19 C         139.0417  144.7009  162.7583 C.2     1  UNL1        0.3414
     20 O         137.5445  144.6705  162.6710 O.2     1  UNL1       -0.2449
     21 C         139.4510  142.4236  157.5864 C.3     1  UNL1        0.2525
     22 O         140.7243  142.2163  158.3515 O.3     1  UNL1       -0.4717
     23 C         142.6862  138.1552  165.4868 C.3     1  UNL1        0.1116
     24 C         142.1130  139.1451  166.4570 C.ar    1  UNL1       -0.0130
     25 C         142.7837  139.3740  167.7791 C.ar    1  UNL1       -0.0022
     26 C         142.2105  140.3640  168.7495 C.ar    1  UNL1        0.0190
     27 C         140.9666  141.1249  168.3978 C.ar    1  UNL1        0.0862
     28 C         140.2959  140.8959  167.0757 C.ar    1  UNL1        0.0190
     29 C         140.8691  139.9060  166.1054 C.ar    1  UNL1       -0.0022
     30 N         140.3934  142.1148  169.3681 N.ar    1  UNL1       -0.1886
     31 C         140.6072  143.5993  169.3429 C.ar    1  UNL1        0.2258
     32 N         139.8516  144.1959  170.4932 N.ar    1  UNL1       -0.1045
     33 N         139.1708  143.0802  171.2293 N.ar    1  UNL1       -0.0222
     34 N         139.5057  141.7940  170.5338 N.ar    1  UNL1       -0.0385
@<TRIPOS>BOND
     1    21    22    1
     2    22    11    1
     3    11    12   ar
     4    12    13   ar
     5    13    14   ar
     6    14    15   ar
     7    15    16   ar
     8    16    10    1
     9    10     9    1
    10     9     1    1
    11     1     2    1
    12     2     3    1
    13     3     4    1
    14     4     5   am
    15     5     6    2
    16     5    23    1
    17    23    24    1
    18    24    25   ar
    19    25    26   ar
    20    26    27   ar
    21    27    30    1
    22    30    31   ar
    23    31    32   ar
    24    32    33   ar
    25    33    34   ar
    26    27    28   ar
    27    28    29   ar
    28     4     7    1
    29     7     8    1
    30    14    17    1
    31    17    18    1
    32    18    19    1
    33    19    20    2
    34    16    11   ar
    35     8     1    1
    36    19    13    1
    37    29    24   ar
    38    34    30   ar
@<TRIPOS>MOLECULE
*****
 34 38 0 0 0
SMALL
GASTEIGER

@<TRIPOS>ATOM
      1 N         141.7815  139.4072  160.1435 N.3     1  UNL1       -0.2695
      2 C         141.4162  138.6584  161.3909 C.3     1  UNL1        0.0939
      3 C         142.2702  138.7833  162.6178 C.3     1  UNL1        0.1107
      4 N         143.4894  139.6569  162.5973 N.am    1  UNL1       -0.2764
      5 C         144.3433  139.7817  163.8242 C.2     1  UNL1        0.2301
      6 O         145.5625  140.6553  163.8037 O.2     1  UNL1       -0.2745
      7 C         143.8547  140.4056  161.3498 C.3     1  UNL1        0.1107
      8 C         143.0007  140.2807  160.1230 C.3     1  UNL1        0.0939
      9 C         140.9276  139.2823  158.9166 C.3     1  UNL1        0.0770
     10 C         139.7984  140.2428  158.6878 C.3     1  UNL1        0.0467
     11 C         138.3839  140.7765  160.8007 C.ar    1  UNL1        0.1349
     12 C         137.9782  141.7294  161.8859 C.ar    1  UNL1        0.0428
     13 C         138.5816  143.1014  161.9433 C.ar    1  UNL1        0.0782
     14 C         139.5906  143.5207  160.9156 C.ar    1  UNL1        0.0274
     15 C         139.9962  142.5679  159.8304 C.ar    1  UNL1       -0.0017
     16 C         139.3928  141.1957  159.7730 C.ar    1  UNL1        0.0130
     17 C         140.0110  144.9269  161.2253 C.3     1  UNL1        0.2356
     18 O         139.2618  145.3767  162.4445 O.3     1  UNL1       -0.4404
     19 C         138.3784  144.2485  162.8882 C.2     1  UNL1        0.3414
     20 O         137.4541  144.2646  164.0695 O.2     1  UNL1       -0.2449
     21 C         137.8166  138.5180  161.9528 C.3     1  UNL1        0.2525
     22 O         137.7804  139.4044  160.7433 O.3     1  UNL1       -0.4717
     23 C         143.9779  139.0330  165.0715 C.3     1  UNL1        0.1116
     24 C         143.2610  139.7364  166.1856 C.ar    1  UNL1       -0.0130
     25 C         142.9420  139.0018  167.4539 C.ar    1  UNL1       -0.0022
     26 C         142.2250  139.7052  168.5680 C.ar    1  UNL1        0.0190
     27 C         141.8269  141.1432  168.4138 C.ar    1  UNL1        0.0862
     28 C         142.1459  141.8777  167.1454 C.ar    1  UNL1        0.0190
     29 C         142.8629  141.1744  166.0313 C.ar    1  UNL1       -0.0022
     30 N         141.1100  141.8466  169.5278 N.ar    1  UNL1       -0.1886
     31 C         141.0104  141.3755  170.9484 C.ar    1  UNL1        0.2258
     32 N         140.2056  142.3825  171.7153 N.ar    1  UNL1       -0.1045
     33 N         139.8076  143.4760  170.7687 N.ar    1  UNL1       -0.0222
     34 N         140.3666  143.1447  169.4168 N.ar    1  UNL1       -0.0385
@<TRIPOS>BOND
     1    21    22    1
     2    22    11    1
     3    11    12   ar
     4    12    13   ar
     5    13    14   ar
     6    14    15   ar
     7    15    16   ar
     8    16    10    1
     9    10     9    1
    10     9     1    1
    11     1     2    1
    12     2     3    1
    13     3     4    1
    14     4     5   am
    15     5     6    2
    16     5    23    1
    17    23    24    1
    18    24    25   ar
    19    25    26   ar
    20    26    27   ar
    21    27    30    1
    22    30    31   ar
    23    31    32   ar
    24    32    33   ar
    25    33    34   ar
    26    27    28   ar
    27    28    29   ar
    28     4     7    1
    29     7     8    1
    30    14    17    1
    31    17    18    1
    32    18    19    1
    33    19    20    2
    34    16    11   ar
    35     8     1    1
    36    19    13    1
    37    29    24   ar
    38    34    30   ar
@<TRIPOS>MOLECULE
*****
 34 38 0 0 0
SMALL
GASTEIGER

@<TRIPOS>ATOM
      1 N         141.9050  138.8776  159.8131 N.3     1  UNL1       -0.2695
      2 C         141.9228  138.1409  161.1197 C.3     1  UNL1        0.0939
      3 C         142.8488  138.5794  162.2153 C.3     1  UNL1        0.1107
      4 N         143.7570  139.7544  162.0044 N.am    1  UNL1       -0.2764
      5 C         144.6829  140.1927  163.1000 C.2     1  UNL1        0.2301
      6 O         145.5912  141.3677  162.8892 O.2     1  UNL1       -0.2745
      7 C         143.7392  140.4910  160.6978 C.3     1  UNL1        0.1107
      8 C         142.8132  140.0526  159.6023 C.3     1  UNL1        0.0939
      9 C         140.9791  138.4392  158.7175 C.3     1  UNL1        0.0770
     10 C         139.5658  138.9410  158.6843 C.3     1  UNL1        0.0467
     11 C         139.2872  141.4843  159.1360 C.ar    1  UNL1        0.1349
     12 C         138.8677  142.6047  160.0408 C.ar    1  UNL1        0.0428
     13 C         138.3072  142.3021  161.3989 C.ar    1  UNL1        0.0782
     14 C         138.1663  140.8792  161.8521 C.ar    1  UNL1        0.0274
     15 C         138.5858  139.7588  160.9473 C.ar    1  UNL1       -0.0017
     16 C         139.1463  140.0614  159.5892 C.ar    1  UNL1        0.0130
     17 C         137.5847  140.8885  163.2347 C.3     1  UNL1        0.2356
     18 O         137.3661  142.3172  163.6360 O.3     1  UNL1       -0.4404
     19 C         137.8127  143.1909  162.5014 C.2     1  UNL1        0.3414
     20 O         137.7718  144.6901  162.4741 O.2     1  UNL1       -0.2449
     21 C         141.1443  142.5299  157.6501 C.3     1  UNL1        0.2525
     22 O         139.8477  141.7869  157.7779 O.3     1  UNL1       -0.4717
     23 C         144.7007  139.4561  164.4066 C.3     1  UNL1        0.1116
     24 C         143.6997  139.7936  165.4714 C.ar    1  UNL1       -0.0130
     25 C         142.9628  141.0991  165.4213 C.ar    1  UNL1       -0.0022
     26 C         141.9617  141.4368  166.4862 C.ar    1  UNL1        0.0190
     27 C         141.6975  140.4688  167.6012 C.ar    1  UNL1        0.0862
     28 C         142.4344  139.1632  167.6513 C.ar    1  UNL1        0.0190
     29 C         143.4355  138.8256  166.5864 C.ar    1  UNL1       -0.0022
     30 N         140.6965  140.8063  168.6660 N.ar    1  UNL1       -0.1886
     31 C         140.6468  142.0793  169.4578 C.ar    1  UNL1        0.2258
     32 N         139.4890  141.9898  170.4072 N.ar    1  UNL1       -0.1045
     33 N         138.8230  140.6614  170.2022 N.ar    1  UNL1       -0.0222
     34 N         139.5693  139.9301  169.1260 N.ar    1  UNL1       -0.0385
@<TRIPOS>BOND
     1    21    22    1
     2    22    11    1
     3    11    12   ar
     4    12    13   ar
     5    13    14   ar
     6    14    15   ar
     7    15    16   ar
     8    16    10    1
     9    10     9    1
    10     9     1    1
    11     1     2    1
    12     2     3    1
    13     3     4    1
    14     4     5   am
    15     5     6    2
    16     5    23    1
    17    23    24    1
    18    24    25   ar
    19    25    26   ar
    20    26    27   ar
    21    27    30    1
    22    30    31   ar
    23    31    32   ar
    24    32    33   ar
    25    33    34   ar
    26    27    28   ar
    27    28    29   ar
    28     4     7    1
    29     7     8    1
    30    14    17    1
    31    17    18    1
    32    18    19    1
    33    19    20    2
    34    16    11   ar
    35     8     1    1
    36    19    13    1
    37    29    24   ar
    38    34    30   ar
@<TRIPOS>MOLECULE
*****
 34 38 0 0 0
SMALL
GASTEIGER

@<TRIPOS>ATOM
      1 N         142.8597  139.7216  160.1671 N.3     1  UNL1       -0.2695
      2 C         143.3996  139.4546  161.5409 C.3     1  UNL1        0.0939
      3 C         142.5082  138.8703  162.5965 C.3     1  UNL1        0.1107
      4 N         141.0771  138.5530  162.2783 N.am    1  UNL1       -0.2764
      5 C         140.1858  137.9688  163.3339 C.2     1  UNL1        0.2301
      6 O         138.7547  137.6515  163.0157 O.2     1  UNL1       -0.2745
      7 C         140.5373  138.8201  160.9045 C.3     1  UNL1        0.1107
      8 C         141.4286  139.4043  159.8489 C.3     1  UNL1        0.0939
      9 C         143.7509  140.3059  159.1115 C.3     1  UNL1        0.0770
     10 C         144.1021  141.7637  159.1492 C.3     1  UNL1        0.0467
     11 C         142.0213  143.2933  158.8652 C.ar    1  UNL1        0.1349
     12 C         141.0500  144.2842  159.4350 C.ar    1  UNL1        0.0428
     13 C         141.1881  144.7365  160.8584 C.ar    1  UNL1        0.0782
     14 C         142.2977  144.1979  161.7122 C.ar    1  UNL1        0.0274
     15 C         143.2690  143.2070  161.1425 C.ar    1  UNL1       -0.0017
     16 C         143.1307  142.7547  159.7189 C.ar    1  UNL1        0.0130
     17 C         142.1831  144.8239  163.0705 C.3     1  UNL1        0.2356
     18 O         141.0028  145.7494  163.0562 O.3     1  UNL1       -0.4404
     19 C         140.3878  145.6954  161.6891 C.2     1  UNL1        0.3414
     20 O         139.1840  146.4652  161.2328 O.2     1  UNL1       -0.2449
     21 C         142.5412  143.6182  156.3405 C.3     1  UNL1        0.2525
     22 O         141.8830  142.8410  157.4417 O.3     1  UNL1       -0.4717
     23 C         140.7257  137.7018  164.7077 C.3     1  UNL1        0.1116
     24 C         140.5612  138.7268  165.7904 C.ar    1  UNL1       -0.0130
     25 C         139.2205  138.9324  166.4310 C.ar    1  UNL1       -0.0022
     26 C         139.0559  139.9574  167.5137 C.ar    1  UNL1        0.0190
     27 C         140.2319  140.7769  167.9558 C.ar    1  UNL1        0.0862
     28 C         141.5725  140.5712  167.3151 C.ar    1  UNL1        0.0190
     29 C         141.7372  139.5462  166.2324 C.ar    1  UNL1       -0.0022
     30 N         140.0673  141.8019  169.0385 N.ar    1  UNL1       -0.1886
     31 C         140.4975  143.2371  168.9666 C.ar    1  UNL1        0.2258
     32 N         140.1397  143.8938  170.2669 N.ar    1  UNL1       -0.1045
     33 N         139.4884  142.8645  171.1424 N.ar    1  UNL1       -0.0222
     34 N         139.4437  141.5716  170.3831 N.ar    1  UNL1       -0.0385
@<TRIPOS>BOND
     1    21    22    1
     2    22    11    1
     3    11    12   ar
     4    12    13   ar
     5    13    14   ar
     6    14    15   ar
     7    15    16   ar
     8    16    10    1
     9    10     9    1
    10     9     1    1
    11     1     2    1
    12     2     3    1
    13     3     4    1
    14     4     5   am
    15     5     6    2
    16     5    23    1
    17    23    24    1
    18    24    25   ar
    19    25    26   ar
    20    26    27   ar
    21    27    30    1
    22    30    31   ar
    23    31    32   ar
    24    32    33   ar
    25    33    34   ar
    26    27    28   ar
    27    28    29   ar
    28     4     7    1
    29     7     8    1
    30    14    17    1
    31    17    18    1
    32    18    19    1
    33    19    20    2
    34    16    11   ar
    35     8     1    1
    36    19    13    1
    37    29    24   ar
    38    34    30   ar
@<TRIPOS>MOLECULE
*****
 34 38 0 0 0
SMALL
GASTEIGER

@<TRIPOS>ATOM
      1 N         142.7724  138.3450  159.1600 N.3     1  UNL1       -0.2695
      2 C         143.0144  137.5609  160.4155 C.3     1  UNL1        0.0939
      3 C         143.6459  138.2239  161.6038 C.3     1  UNL1        0.1107
      4 N         144.0352  139.6709  161.5365 N.am    1  UNL1       -0.2764
      5 C         144.6665  140.3337  162.7247 C.2     1  UNL1        0.2301
      6 O         145.0559  141.7807  162.6574 O.2     1  UNL1       -0.2745
      7 C         143.7931  140.4550  160.2808 C.3     1  UNL1        0.1107
      8 C         143.1617  139.7921  159.0926 C.3     1  UNL1        0.0939
      9 C         142.1410  137.6822  157.9717 C.3     1  UNL1        0.0770
     10 C         142.9975  136.9696  156.9673 C.3     1  UNL1        0.0467
     11 C         141.6399  135.3402  155.4667 C.ar    1  UNL1        0.1349
     12 C         141.2969  133.9418  155.0463 C.ar    1  UNL1        0.0428
     13 C         141.9687  132.7742  155.7062 C.ar    1  UNL1        0.0782
     14 C         142.9834  133.0051  156.7865 C.ar    1  UNL1        0.0274
     15 C         143.3264  134.4035  157.2069 C.ar    1  UNL1       -0.0017
     16 C         142.6545  135.5711  156.5469 C.ar    1  UNL1        0.0130
     17 C         143.4776  131.6675  157.2519 C.3     1  UNL1        0.2356
     18 O         142.7683  130.6099  156.4591 O.3     1  UNL1       -0.4404
     19 C         141.8357  131.2939  155.5039 C.2     1  UNL1        0.3414
     20 O         140.9294  130.6165  154.5192 O.2     1  UNL1       -0.2449
     21 C         141.4877  137.0324  153.5011 C.3     1  UNL1        0.2525
     22 O         140.9680  136.5078  154.8067 O.3     1  UNL1       -0.4717
     23 C         144.9086  139.5496  163.9803 C.3     1  UNL1        0.1116
     24 C         143.9161  139.6072  165.1035 C.ar    1  UNL1       -0.0130
     25 C         142.8476  140.6599  165.1069 C.ar    1  UNL1       -0.0022
     26 C         141.8551  140.7176  166.2301 C.ar    1  UNL1        0.0190
     27 C         141.9310  139.7225  167.3499 C.ar    1  UNL1        0.0862
     28 C         142.9996  138.6698  167.3465 C.ar    1  UNL1        0.0190
     29 C         143.9921  138.6121  166.2233 C.ar    1  UNL1       -0.0022
     30 N         140.9386  139.7802  168.4731 N.ar    1  UNL1       -0.1886
     31 C         139.4655  140.0276  168.3363 C.ar    1  UNL1        0.2258
     32 N         138.8615  140.0008  169.7090 N.ar    1  UNL1       -0.1045
     33 N         139.9613  139.7368  170.6944 N.ar    1  UNL1       -0.0222
     34 N         141.2450  139.6004  169.9305 N.ar    1  UNL1       -0.0385
@<TRIPOS>BOND
     1    21    22    1
     2    22    11    1
     3    11    12   ar
     4    12    13   ar
     5    13    14   ar
     6    14    15   ar
     7    15    16   ar
     8    16    10    1
     9    10     9    1
    10     9     1    1
    11     1     2    1
    12     2     3    1
    13     3     4    1
    14     4     5   am
    15     5     6    2
    16     5    23    1
    17    23    24    1
    18    24    25   ar
    19    25    26   ar
    20    26    27   ar
    21    27    30    1
    22    30    31   ar
    23    31    32   ar
    24    32    33   ar
    25    33    34   ar
    26    27    28   ar
    27    28    29   ar
    28     4     7    1
    29     7     8    1
    30    14    17    1
    31    17    18    1
    32    18    19    1
    33    19    20    2
    34    16    11   ar
    35     8     1    1
    36    19    13    1
    37    29    24   ar
    38    34    30   ar
