@<TRIPOS>MOLECULE
*****
 19 20 0 0 0
SMALL
GASTEIGER

@<TRIPOS>ATOM
      1 N         138.0266  140.8169  163.3383 N.3     1  UNL1       -0.2665
      2 C         137.7616  139.8137  162.2550 C.3     1  UNL1        0.0986
      3 C         138.2324  138.3927  162.1607 C.2     1  UNL1       -0.0134
      4 C         139.0844  137.6237  163.1264 C.2     1  UNL1       -0.0289
      5 C         139.6761  138.0858  164.4250 C.3     1  UNL1        0.0315
      6 C         139.5619  139.4312  165.0785 C.3     1  UNL1        0.0427
      7 C         138.8279  140.6465  164.5950 C.3     1  UNL1        0.0771
      8 C         140.2763  139.5808  166.3890 C.ar    1  UNL1       -0.0199
      9 C         141.7625  139.3900  166.4592 C.ar    1  UNL1       -0.0033
     10 C         142.4769  139.5397  167.7696 C.ar    1  UNL1        0.0119
     11 C         141.7050  139.8801  169.0099 C.ar    1  UNL1        0.0682
     12 CL        142.4194  140.0298  170.3204 Cl      1  UNL1       -0.0814
     13 C         140.2188  140.0710  168.9398 C.ar    1  UNL1        0.0679
     14 CL        139.4471  140.4114  170.1801 Cl      1  UNL1       -0.0814
     15 C         139.5045  139.9213  167.6294 C.ar    1  UNL1        0.0080
     16 C         137.4087  142.1690  163.1387 C.3     1  UNL1        0.1048
     17 C         138.0316  143.1449  162.1850 C.3     1  UNL1        0.1595
     18 C         139.2955  145.4103  162.3292 C.3     1  UNL1        0.1742
     19 O         138.0400  144.6094  162.5093 O.3     1  UNL1       -0.3496
@<TRIPOS>BOND
     1    18    19    1
     2    19    17    1
     3    17    16    1
     4    16     1    1
     5     1     2    1
     6     2     3    1
     7     3     4    2
     8     4     5    1
     9     5     6    1
    10     6     8    1
    11     8     9   ar
    12     9    10   ar
    13    10    11   ar
    14    11    12    1
    15    11    13   ar
    16    13    14    1
    17    13    15   ar
    18     6     7    1
    19     7     1    1
    20    15     8   ar
@<TRIPOS>MOLECULE
*****
 19 20 0 0 0
SMALL
GASTEIGER

@<TRIPOS>ATOM
      1 N         140.7274  144.2847  164.3770 N.3     1  UNL1       -0.2665
      2 C         141.6302  145.0947  163.4944 C.3     1  UNL1        0.0986
      3 C         143.1274  145.0651  163.4095 C.2     1  UNL1       -0.0134
      4 C         144.0918  144.2183  164.1860 C.2     1  UNL1       -0.0289
      5 C         143.7969  143.1918  165.2392 C.3     1  UNL1        0.0315
      6 C         142.4649  142.7587  165.7761 C.3     1  UNL1        0.0427
      7 C         141.0989  143.2450  165.3924 C.3     1  UNL1        0.0771
      8 C         142.5043  141.6990  166.8371 C.ar    1  UNL1       -0.0199
      9 C         142.7125  140.2632  166.4558 C.ar    1  UNL1       -0.0033
     10 C         142.7518  139.2036  167.5168 C.ar    1  UNL1        0.0119
     11 C         142.5830  139.5797  168.9590 C.ar    1  UNL1        0.0682
     12 CL        142.6223  138.5201  170.0200 Cl      1  UNL1       -0.0814
     13 C         142.3748  141.0155  169.3403 C.ar    1  UNL1        0.0679
     14 CL        142.2059  141.3915  170.7825 Cl      1  UNL1       -0.0814
     15 C         142.3354  142.0751  168.2794 C.ar    1  UNL1        0.0080
     16 C         139.2589  144.5492  164.2237 C.3     1  UNL1        0.1048
     17 C         138.6866  144.8398  162.8680 C.3     1  UNL1        0.1595
     18 C         137.6546  142.4568  162.7871 C.3     1  UNL1        0.1742
     19 O         137.9387  143.7725  162.1252 O.3     1  UNL1       -0.3496
@<TRIPOS>BOND
     1    18    19    1
     2    19    17    1
     3    17    16    1
     4    16     1    1
     5     1     2    1
     6     2     3    1
     7     3     4    2
     8     4     5    1
     9     5     6    1
    10     6     8    1
    11     8     9   ar
    12     9    10   ar
    13    10    11   ar
    14    11    12    1
    15    11    13   ar
    16    13    14    1
    17    13    15   ar
    18     6     7    1
    19     7     1    1
    20    15     8   ar
@<TRIPOS>MOLECULE
*****
 19 20 0 0 0
SMALL
GASTEIGER

@<TRIPOS>ATOM
      1 N         138.0480  140.6420  163.5938 N.3     1  UNL1       -0.2665
      2 C         138.0753  139.4473  162.6872 C.3     1  UNL1        0.0986
      3 C         138.7305  138.1170  162.9126 C.2     1  UNL1       -0.0134
      4 C         139.5205  137.6528  164.1002 C.2     1  UNL1       -0.0289
      5 C         139.8502  138.4043  165.3558 C.3     1  UNL1        0.0315
      6 C         139.4714  139.8056  165.7338 C.3     1  UNL1        0.0427
      7 C         138.6694  140.8014  164.9498 C.3     1  UNL1        0.0771
      8 C         139.9592  140.2727  167.0732 C.ar    1  UNL1       -0.0199
      9 C         139.1904  139.9268  168.3139 C.ar    1  UNL1       -0.0033
     10 C         139.6781  140.3939  169.6533 C.ar    1  UNL1        0.0119
     11 C         140.9348  141.2070  169.7519 C.ar    1  UNL1        0.0682
     12 CL        141.4225  141.6742  171.0913 Cl      1  UNL1       -0.0814
     13 C         141.7036  141.5530  168.5113 C.ar    1  UNL1        0.0679
     14 CL        142.9602  142.3661  168.6099 Cl      1  UNL1       -0.0814
     15 C         141.2159  141.0859  167.1719 C.ar    1  UNL1        0.0080
     16 C         137.3006  141.8351  163.0761 C.3     1  UNL1        0.1048
     17 C         137.9887  142.8191  162.1772 C.3     1  UNL1        0.1595
     18 C         139.1010  145.0990  162.7383 C.3     1  UNL1        0.1742
     19 O         137.8719  144.2901  162.4465 O.3     1  UNL1       -0.3496
@<TRIPOS>BOND
     1    18    19    1
     2    19    17    1
     3    17    16    1
     4    16     1    1
     5     1     2    1
     6     2     3    1
     7     3     4    2
     8     4     5    1
     9     5     6    1
    10     6     8    1
    11     8     9   ar
    12     9    10   ar
    13    10    11   ar
    14    11    12    1
    15    11    13   ar
    16    13    14    1
    17    13    15   ar
    18     6     7    1
    19     7     1    1
    20    15     8   ar
@<TRIPOS>MOLECULE
*****
 19 20 0 0 0
SMALL
GASTEIGER

@<TRIPOS>ATOM
      1 N         141.3363  144.3986  163.7567 N.3     1  UNL1       -0.2665
      2 C         142.7275  144.5909  163.2297 C.3     1  UNL1        0.0986
      3 C         144.0139  144.0297  163.7589 C.2     1  UNL1       -0.0134
      4 C         144.2270  143.1375  164.9457 C.2     1  UNL1       -0.0289
      5 C         143.2062  142.5862  165.8966 C.3     1  UNL1        0.0315
      6 C         141.7203  142.7910  165.8953 C.3     1  UNL1        0.0427
      7 C         140.8881  143.5975  164.9431 C.3     1  UNL1        0.0771
      8 C         140.9669  142.0974  166.9914 C.ar    1  UNL1       -0.0199
      9 C         140.4307  140.7135  166.7736 C.ar    1  UNL1       -0.0033
     10 C         139.6773  140.0199  167.8697 C.ar    1  UNL1        0.0119
     11 C         139.4601  140.7102  169.1835 C.ar    1  UNL1        0.0682
     12 CL        138.7067  140.0166  170.2796 Cl      1  UNL1       -0.0814
     13 C         139.9962  142.0941  169.4014 C.ar    1  UNL1        0.0679
     14 CL        139.7790  142.7843  170.7152 Cl      1  UNL1       -0.0814
     15 C         140.7496  142.7877  168.3053 C.ar    1  UNL1        0.0080
     16 C         140.2497  145.1001  162.9969 C.3     1  UNL1        0.1048
     17 C         138.8114  144.8436  163.3364 C.3     1  UNL1        0.1595
     18 C         137.9993  142.8006  161.9519 C.3     1  UNL1        0.1742
     19 O         137.8918  144.2537  162.3086 O.3     1  UNL1       -0.3496
@<TRIPOS>BOND
     1    18    19    1
     2    19    17    1
     3    17    16    1
     4    16     1    1
     5     1     2    1
     6     2     3    1
     7     3     4    2
     8     4     5    1
     9     5     6    1
    10     6     8    1
    11     8     9   ar
    12     9    10   ar
    13    10    11   ar
    14    11    12    1
    15    11    13   ar
    16    13    14    1
    17    13    15   ar
    18     6     7    1
    19     7     1    1
    20    15     8   ar
@<TRIPOS>MOLECULE
*****
 19 20 0 0 0
SMALL
GASTEIGER

@<TRIPOS>ATOM
      1 N         138.2024  141.5811  163.6157 N.3     1  UNL1       -0.2665
      2 C         137.7802  142.8942  163.0261 C.3     1  UNL1        0.0986
      3 C         138.0515  144.2785  163.5357 C.2     1  UNL1       -0.0134
      4 C         138.8121  144.6919  164.7607 C.2     1  UNL1       -0.0289
      5 C         139.4892  143.8228  165.7787 C.3     1  UNL1        0.0315
      6 C         139.5730  142.3258  165.8230 C.3     1  UNL1        0.0427
      7 C         139.0003  141.3282  164.8605 C.3     1  UNL1        0.0771
      8 C         140.3294  141.7504  166.9835 C.ar    1  UNL1       -0.0199
      9 C         139.7980  140.5457  167.7021 C.ar    1  UNL1       -0.0033
     10 C         140.5545  139.9703  168.8626 C.ar    1  UNL1        0.0119
     11 C         141.8424  140.5996  169.3044 C.ar    1  UNL1        0.0682
     12 CL        142.5989  140.0242  170.4649 Cl      1  UNL1       -0.0814
     13 C         142.3739  141.8043  168.5858 C.ar    1  UNL1        0.0679
     14 CL        143.6617  142.4335  169.0277 Cl      1  UNL1       -0.0814
     15 C         141.6174  142.3797  167.4254 C.ar    1  UNL1        0.0080
     16 C         137.7695  140.3594  162.8606 C.3     1  UNL1        0.1048
     17 C         138.6969  139.1871  162.7357 C.3     1  UNL1        0.1595
     18 C         139.7522  137.7100  164.5945 C.3     1  UNL1        0.1742
     19 O         138.5944  138.0434  163.7009 O.3     1  UNL1       -0.3496
@<TRIPOS>BOND
     1    18    19    1
     2    19    17    1
     3    17    16    1
     4    16     1    1
     5     1     2    1
     6     2     3    1
     7     3     4    2
     8     4     5    1
     9     5     6    1
    10     6     8    1
    11     8     9   ar
    12     9    10   ar
    13    10    11   ar
    14    11    12    1
    15    11    13   ar
    16    13    14    1
    17    13    15   ar
    18     6     7    1
    19     7     1    1
    20    15     8   ar
@<TRIPOS>MOLECULE
*****
 19 20 0 0 0
SMALL
GASTEIGER

@<TRIPOS>ATOM
      1 N         139.3120  139.9244  168.4629 N.3     1  UNL1       -0.2665
      2 C         138.0783  139.1389  168.1293 C.3     1  UNL1        0.0986
      3 C         137.7344  138.4366  166.8493 C.2     1  UNL1       -0.0134
      4 C         138.5392  138.3461  165.5867 C.2     1  UNL1       -0.0289
      5 C         139.8866  138.9358  165.2923 C.3     1  UNL1        0.0315
      6 C         140.7621  139.7614  166.1878 C.3     1  UNL1        0.0427
      7 C         140.5064  140.2014  167.5987 C.3     1  UNL1        0.0771
      8 C         142.0657  140.2059  165.5936 C.ar    1  UNL1       -0.0199
      9 C         142.8715  139.2563  164.7575 C.ar    1  UNL1       -0.0033
     10 C         144.1751  139.7008  164.1633 C.ar    1  UNL1        0.0119
     11 C         144.6730  141.0949  164.4052 C.ar    1  UNL1        0.0682
     12 CL        145.9766  141.5394  163.8111 Cl      1  UNL1       -0.0814
     13 C         143.8673  142.0446  165.2413 C.ar    1  UNL1        0.0679
     14 CL        144.3651  143.4386  165.4832 Cl      1  UNL1       -0.0814
     15 C         142.5636  141.6001  165.8355 C.ar    1  UNL1        0.0080
     16 C         139.3572  140.5102  169.8430 C.3     1  UNL1        0.1048
     17 C         139.8719  141.9039  170.0497 C.3     1  UNL1        0.1595
     18 C         142.3518  142.6242  170.3352 C.3     1  UNL1        0.1742
     19 O         141.0626  142.1407  170.9306 O.3     1  UNL1       -0.3496
@<TRIPOS>BOND
     1    18    19    1
     2    19    17    1
     3    17    16    1
     4    16     1    1
     5     1     2    1
     6     2     3    1
     7     3     4    2
     8     4     5    1
     9     5     6    1
    10     6     8    1
    11     8     9   ar
    12     9    10   ar
    13    10    11   ar
    14    11    12    1
    15    11    13   ar
    16    13    14    1
    17    13    15   ar
    18     6     7    1
    19     7     1    1
    20    15     8   ar
@<TRIPOS>MOLECULE
*****
 19 20 0 0 0
SMALL
GASTEIGER

@<TRIPOS>ATOM
      1 N         142.5883  138.7693  163.7670 N.3     1  UNL1       -0.2665
      2 C         141.7389  137.9583  162.8337 C.3     1  UNL1        0.0986
      3 C         140.3179  137.5125  163.0113 C.2     1  UNL1       -0.0134
      4 C         139.3949  137.7675  164.1659 C.2     1  UNL1       -0.0289
      5 C         139.6652  138.5314  165.4282 C.3     1  UNL1        0.0315
      6 C         140.9253  139.2289  165.8476 C.3     1  UNL1        0.0427
      7 C         142.2261  139.3348  165.1084 C.3     1  UNL1        0.0771
      8 C         140.8782  139.9106  167.1829 C.ar    1  UNL1       -0.0199
      9 C         139.5978  139.9430  167.9638 C.ar    1  UNL1       -0.0033
     10 C         139.5507  140.6248  169.2991 C.ar    1  UNL1        0.0119
     11 C         140.7839  141.2742  169.8535 C.ar    1  UNL1        0.0682
     12 CL        140.7368  141.9560  171.1887 Cl      1  UNL1       -0.0814
     13 C         142.0643  141.2419  169.0726 C.ar    1  UNL1        0.0679
     14 CL        143.2974  141.8912  169.6270 Cl      1  UNL1       -0.0814
     15 C         142.1114  140.5601  167.7373 C.ar    1  UNL1        0.0080
     16 C         143.9843  139.0523  163.2968 C.3     1  UNL1        0.1048
     17 C         145.0233  139.5216  164.2715 C.3     1  UNL1        0.1595
     18 C         145.3130  141.7168  162.9123 C.3     1  UNL1        0.1742
     19 O         145.6459  140.8767  164.1097 O.3     1  UNL1       -0.3496
@<TRIPOS>BOND
     1    18    19    1
     2    19    17    1
     3    17    16    1
     4    16     1    1
     5     1     2    1
     6     2     3    1
     7     3     4    2
     8     4     5    1
     9     5     6    1
    10     6     8    1
    11     8     9   ar
    12     9    10   ar
    13    10    11   ar
    14    11    12    1
    15    11    13   ar
    16    13    14    1
    17    13    15   ar
    18     6     7    1
    19     7     1    1
    20    15     8   ar
@<TRIPOS>MOLECULE
*****
 19 20 0 0 0
SMALL
GASTEIGER

@<TRIPOS>ATOM
      1 N         140.6103  144.2826  164.0840 N.3     1  UNL1       -0.2665
      2 C         139.3577  144.3997  163.2669 C.3     1  UNL1        0.0986
      3 C         138.1303  143.5387  163.3082 C.2     1  UNL1       -0.0134
      4 C         137.8520  142.3476  164.1766 C.2     1  UNL1       -0.0289
      5 C         138.7327  141.7236  165.2182 C.3     1  UNL1        0.0315
      6 C         140.1090  142.1365  165.6488 C.3     1  UNL1        0.0427
      7 C         140.9445  143.2752  165.1441 C.3     1  UNL1        0.0771
      8 C         140.7320  141.2998  166.7266 C.ar    1  UNL1       -0.0199
      9 C         142.0533  140.6311  166.4876 C.ar    1  UNL1       -0.0033
     10 C         142.6764  139.7944  167.5655 C.ar    1  UNL1        0.0119
     11 C         141.9782  139.6265  168.8824 C.ar    1  UNL1        0.0682
     12 CL        142.6013  138.7899  169.9603 Cl      1  UNL1       -0.0814
     13 C         140.6569  140.2952  169.1215 C.ar    1  UNL1        0.0679
     14 CL        139.9588  140.1273  170.4384 Cl      1  UNL1       -0.0814
     15 C         140.0339  141.1319  168.0436 C.ar    1  UNL1        0.0080
     16 C         141.6683  145.3083  163.8040 C.3     1  UNL1        0.1048
     17 C         143.1126  144.9049  163.7662 C.3     1  UNL1        0.1595
     18 C         144.1120  143.4047  161.8952 C.3     1  UNL1        0.1742
     19 O         143.8186  144.7672  162.4499 O.3     1  UNL1       -0.3496
@<TRIPOS>BOND
     1    18    19    1
     2    19    17    1
     3    17    16    1
     4    16     1    1
     5     1     2    1
     6     2     3    1
     7     3     4    2
     8     4     5    1
     9     5     6    1
    10     6     8    1
    11     8     9   ar
    12     9    10   ar
    13    10    11   ar
    14    11    12    1
    15    11    13   ar
    16    13    14    1
    17    13    15   ar
    18     6     7    1
    19     7     1    1
    20    15     8   ar
@<TRIPOS>MOLECULE
*****
 19 20 0 0 0
SMALL
GASTEIGER

@<TRIPOS>ATOM
      1 N         140.0073  141.1831  168.0465 N.3     1  UNL1       -0.2665
      2 C         139.3797  139.8290  168.1972 C.3     1  UNL1        0.0986
      3 C         138.5315  139.0769  167.2151 C.2     1  UNL1       -0.0134
      4 C         138.1011  139.4929  165.8397 C.2     1  UNL1       -0.0289
      5 C         138.4129  140.7639  165.1067 C.3     1  UNL1        0.0315
      6 C         139.2319  141.9328  165.5681 C.3     1  UNL1        0.0427
      7 C         139.9415  142.1194  166.8763 C.3     1  UNL1        0.0771
      8 C         139.3580  143.0648  164.5921 C.ar    1  UNL1       -0.0199
      9 C         138.1609  143.5175  163.8096 C.ar    1  UNL1       -0.0033
     10 C         138.2871  144.6495  162.8336 C.ar    1  UNL1        0.0119
     11 C         139.6103  145.3289  162.6400 C.ar    1  UNL1        0.0682
     12 CL        139.7364  146.4609  161.6640 Cl      1  UNL1       -0.0814
     13 C         140.8074  144.8764  163.4225 C.ar    1  UNL1        0.0679
     14 CL        142.1305  145.5558  163.2289 Cl      1  UNL1       -0.0814
     15 C         140.6813  143.7443  164.3985 C.ar    1  UNL1        0.0080
     16 C         140.8063  141.6646  169.2211 C.3     1  UNL1        0.1048
     17 C         140.9615  140.7917  170.4311 C.3     1  UNL1        0.1595
     18 C         142.6168  138.8402  169.9817 C.3     1  UNL1        0.1742
     19 O         142.2700  140.1100  170.7012 O.3     1  UNL1       -0.3496
@<TRIPOS>BOND
     1    18    19    1
     2    19    17    1
     3    17    16    1
     4    16     1    1
     5     1     2    1
     6     2     3    1
     7     3     4    2
     8     4     5    1
     9     5     6    1
    10     6     8    1
    11     8     9   ar
    12     9    10   ar
    13    10    11   ar
    14    11    12    1
    15    11    13   ar
    16    13    14    1
    17    13    15   ar
    18     6     7    1
    19     7     1    1
    20    15     8   ar
