@<TRIPOS>MOLECULE
*****
 32 37 0 0 0
SMALL
GASTEIGER

@<TRIPOS>ATOM
      1 C         140.4143  144.6904  158.0272 C.3     1  UNL1        0.0181
      2 C         140.3265  144.7433  159.5237 C.3     1  UNL1        0.0036
      3 C         140.0630  144.5387  160.9862 C.3     1  UNL1        0.0227
      4 C         139.2046  143.3178  161.1361 C.3     1  UNL1        0.0870
      5 C         138.9375  142.7678  159.7664 C.3     1  UNL1        0.0227
      6 C         139.6309  143.6489  158.7698 C.3     1  UNL1        0.0036
      7 N         138.7016  142.7470  162.4289 N.ar    1  UNL1       -0.3109
      8 C         137.9862  143.5045  163.5079 C.ar    1  UNL1        0.1785
      9 N         137.6681  142.5442  164.6155 N.ar    1  UNL1       -0.2239
     10 C         138.1869  141.1932  164.2209 C.ar    1  UNL1        0.1011
     11 C         138.1602  139.8651  164.9175 C.ar    1  UNL1        0.0526
     12 C         138.7723  138.6623  164.2627 C.ar    1  UNL1        0.1690
     13 F         138.7456  137.3341  164.9594 F       1  UNL1       -0.2017
     14 C         139.4110  138.7876  162.9113 C.ar    1  UNL1        0.1689
     15 F         140.0230  137.5849  162.2565 F       1  UNL1       -0.2017
     16 C         139.4376  140.1158  162.2147 C.ar    1  UNL1        0.0507
     17 C         138.8256  141.3186  162.8694 C.ar    1  UNL1        0.0813
     18 C         140.9174  145.2612  156.7345 C.3     1  UNL1        0.0717
     19 O         138.4432  146.0914  155.2549 O.2     1  UNL1       -0.2701
     20 C         139.4486  147.1230  155.6732 C.2     1  UNL1        0.2458
     21 N         140.6856  146.7080  156.4129 N.am    1  UNL1       -0.3025
     22 H         141.3455  147.3851  156.6874 H       1  UNL1        0.1497
     23 C         139.2168  148.5697  155.3516 C.ar    1  UNL1        0.0534
     24 C         139.6993  149.1351  154.0488 C.ar    1  UNL1        0.0054
     25 C         139.4676  150.5818  153.7272 C.ar    1  UNL1        0.0115
     26 C         138.7533  151.4631  154.7085 C.ar    1  UNL1        0.0577
     27 CL        138.5215  152.9098  154.3870 Cl      1  UNL1       -0.0822
     28 C         138.2708  150.8977  156.0114 C.ar    1  UNL1        0.0115
     29 C         138.5026  149.4510  156.3329 C.ar    1  UNL1        0.0054
     30 C         141.6522  144.3855  155.7634 C.3     1  UNL1        0.0180
     31 C         142.8040  143.4784  155.4464 C.3     1  UNL1        0.0017
     32 C         141.7731  143.7758  154.3982 C.3     1  UNL1        0.0017
@<TRIPOS>BOND
     1    19    20    2
     2    20    21   am
     3    18    21    1
     4    18    30    1
     5    30    31    1
     6    31    32    1
     7     1    18    1
     8     1     2    1
     9     2     3    1
    10     3     4    1
    11     4     7    1
    12     7     8   ar
    13     8     9   ar
    14     9    10   ar
    15    10    11   ar
    16    11    12   ar
    17    12    13    1
    18    12    14   ar
    19    14    15    1
    20    14    16   ar
    21    16    17   ar
    22     4     5    1
    23     6     5    1
    24    20    23    1
    25    23    24   ar
    26    24    25   ar
    27    25    26   ar
    28    26    27    1
    29    26    28   ar
    30    28    29   ar
    31    32    30    1
    32     6     1    1
    33    29    23   ar
    34     6     2    1
    35    17     7   ar
    36    17    10   ar
    37    21    22    1
@<TRIPOS>MOLECULE
*****
 32 37 0 0 0
SMALL
GASTEIGER

@<TRIPOS>ATOM
      1 C         136.7506  140.9811  156.1906 C.3     1  UNL1        0.0181
      2 C         137.5099  141.0610  157.4818 C.3     1  UNL1        0.0036
      3 C         138.3590  141.4212  158.6647 C.3     1  UNL1        0.0227
      4 C         138.9477  142.7784  158.4166 C.3     1  UNL1        0.0870
      5 C         138.4625  143.2570  157.0804 C.3     1  UNL1        0.0227
      6 C         137.5738  142.1956  156.5026 C.3     1  UNL1        0.0036
      7 N         139.8613  143.5257  159.3423 N.ar    1  UNL1       -0.3109
      8 C         141.1962  144.1083  158.9832 C.ar    1  UNL1        0.1785
      9 N         141.7603  144.7643  160.2085 N.ar    1  UNL1       -0.2239
     10 C         140.7741  144.5872  161.3249 C.ar    1  UNL1        0.1011
     11 C         140.7932  145.0241  162.7597 C.ar    1  UNL1        0.0526
     12 C         139.6386  144.6954  163.6592 C.ar    1  UNL1        0.1690
     13 F         139.6577  145.1323  165.0940 F       1  UNL1       -0.2017
     14 C         138.4650  143.9300  163.1238 C.ar    1  UNL1        0.1689
     15 F         137.3104  143.6013  164.0232 F       1  UNL1       -0.2017
     16 C         138.4459  143.4931  161.6889 C.ar    1  UNL1        0.0507
     17 C         139.6005  143.8217  160.7895 C.ar    1  UNL1        0.0813
     18 C         135.8370  140.2337  155.2650 C.3     1  UNL1        0.0717
     19 O         133.9749  139.1023  157.3272 O.2     1  UNL1       -0.2701
     20 C         133.4447  140.0037  156.2519 C.2     1  UNL1        0.2458
     21 N         134.3757  140.5694  155.2209 N.am    1  UNL1       -0.3025
     22 H         134.0277  141.1611  154.5152 H       1  UNL1        0.1497
     23 C         131.9834  140.3395  156.2078 C.ar    1  UNL1        0.0534
     24 C         131.4990  141.4693  155.3484 C.ar    1  UNL1        0.0054
     25 C         130.0377  141.8051  155.3042 C.ar    1  UNL1        0.0115
     26 C         129.0608  141.0109  156.1197 C.ar    1  UNL1        0.0577
     27 CL        127.5995  141.3465  156.0756 Cl      1  UNL1       -0.0822
     28 C         129.5452  139.8810  156.9792 C.ar    1  UNL1        0.0115
     29 C         131.0065  139.5453  157.0232 C.ar    1  UNL1        0.0054
     30 C         136.3846  139.1505  154.3836 C.3     1  UNL1        0.0180
     31 C         136.7908  138.6630  153.0245 C.3     1  UNL1        0.0017
     32 C         136.9267  137.7620  154.2160 C.3     1  UNL1        0.0017
@<TRIPOS>BOND
     1    19    20    2
     2    20    21   am
     3    18    21    1
     4    18    30    1
     5    30    31    1
     6    31    32    1
     7     1    18    1
     8     1     2    1
     9     2     3    1
    10     3     4    1
    11     4     7    1
    12     7     8   ar
    13     8     9   ar
    14     9    10   ar
    15    10    11   ar
    16    11    12   ar
    17    12    13    1
    18    12    14   ar
    19    14    15    1
    20    14    16   ar
    21    16    17   ar
    22     4     5    1
    23     6     5    1
    24    20    23    1
    25    23    24   ar
    26    24    25   ar
    27    25    26   ar
    28    26    27    1
    29    26    28   ar
    30    28    29   ar
    31    32    30    1
    32     6     1    1
    33    29    23   ar
    34     6     2    1
    35    17     7   ar
    36    17    10   ar
    37    21    22    1
@<TRIPOS>MOLECULE
*****
 32 37 0 0 0
SMALL
GASTEIGER

@<TRIPOS>ATOM
      1 C         142.2786  137.9971  157.9143 C.3     1  UNL1        0.0181
      2 C         141.0049  138.4363  158.5739 C.3     1  UNL1        0.0036
      3 C         139.9237  139.0214  159.4333 C.3     1  UNL1        0.0227
      4 C         140.5782  139.8121  160.5272 C.3     1  UNL1        0.0870
      5 C         142.0638  139.7155  160.3439 C.3     1  UNL1        0.0227
      6 C         142.3276  138.8652  159.1366 C.3     1  UNL1        0.0036
      7 N         139.8711  140.5667  161.6137 N.ar    1  UNL1       -0.3109
      8 C         139.5359  142.0287  161.5974 C.ar    1  UNL1        0.1785
      9 N         138.8327  142.3574  162.8809 N.ar    1  UNL1       -0.2239
     10 C         138.7333  141.0986  163.6905 C.ar    1  UNL1        0.1011
     11 C         138.1413  140.8171  165.0397 C.ar    1  UNL1        0.0526
     12 C         138.1911  139.4288  165.6058 C.ar    1  UNL1        0.1690
     13 F         137.5991  139.1474  166.9549 F       1  UNL1       -0.2017
     14 C         138.8328  138.3221  164.8226 C.ar    1  UNL1        0.1689
     15 F         138.8826  136.9339  165.3886 F       1  UNL1       -0.2017
     16 C         139.4248  138.6037  163.4734 C.ar    1  UNL1        0.0507
     17 C         139.3750  139.9919  162.9074 C.ar    1  UNL1        0.0813
     18 C         142.9855  137.2425  156.8277 C.3     1  UNL1        0.0717
     19 O         141.4841  134.8822  155.7439 O.2     1  UNL1       -0.2701
     20 C         142.7363  134.6721  156.5425 C.2     1  UNL1        0.2458
     21 N         143.4871  135.8522  157.0843 N.am    1  UNL1       -0.3025
     22 H         144.3090  135.7143  157.6084 H       1  UNL1        0.1497
     23 C         143.2379  133.2819  156.7991 C.ar    1  UNL1        0.0534
     24 C         144.4780  133.0708  157.6159 C.ar    1  UNL1        0.0054
     25 C         144.9795  131.6805  157.8725 C.ar    1  UNL1        0.0115
     26 C         144.2408  130.5015  157.3122 C.ar    1  UNL1        0.0577
     27 CL        144.7422  129.1112  157.5687 Cl      1  UNL1       -0.0822
     28 C         143.0006  130.7126  156.4952 C.ar    1  UNL1        0.0115
     29 C         142.4991  132.1028  156.2387 C.ar    1  UNL1        0.0054
     30 C         143.1911  137.8779  155.4846 C.3     1  UNL1        0.0180
     31 C         142.7342  138.1135  154.0754 C.3     1  UNL1        0.0017
     32 C         144.0039  138.7427  154.5674 C.3     1  UNL1        0.0017
@<TRIPOS>BOND
     1    19    20    2
     2    20    21   am
     3    18    21    1
     4    18    30    1
     5    30    31    1
     6    31    32    1
     7     1    18    1
     8     1     2    1
     9     2     3    1
    10     3     4    1
    11     4     7    1
    12     7     8   ar
    13     8     9   ar
    14     9    10   ar
    15    10    11   ar
    16    11    12   ar
    17    12    13    1
    18    12    14   ar
    19    14    15    1
    20    14    16   ar
    21    16    17   ar
    22     4     5    1
    23     6     5    1
    24    20    23    1
    25    23    24   ar
    26    24    25   ar
    27    25    26   ar
    28    26    27    1
    29    26    28   ar
    30    28    29   ar
    31    32    30    1
    32     6     1    1
    33    29    23   ar
    34     6     2    1
    35    17     7   ar
    36    17    10   ar
    37    21    22    1
@<TRIPOS>MOLECULE
*****
 32 37 0 0 0
SMALL
GASTEIGER

@<TRIPOS>ATOM
      1 C         140.4400  145.1292  157.9503 C.3     1  UNL1        0.0181
      2 C         140.3685  145.4032  159.4234 C.3     1  UNL1        0.0036
      3 C         140.1778  145.3876  160.9111 C.3     1  UNL1        0.0227
      4 C         139.5924  144.0594  161.2895 C.3     1  UNL1        0.0870
      5 C         139.4213  143.2541  160.0356 C.3     1  UNL1        0.0227
      6 C         139.9010  144.0847  158.8822 C.3     1  UNL1        0.0036
      7 N         139.2399  143.6146  162.6780 N.ar    1  UNL1       -0.3109
      8 C         137.8538  143.4034  163.2109 C.ar    1  UNL1        0.1785
      9 N         137.9690  142.9611  164.6396 N.ar    1  UNL1       -0.2239
     10 C         139.4263  142.8990  164.9896 C.ar    1  UNL1        0.1011
     11 C         140.1394  142.5268  166.2556 C.ar    1  UNL1        0.0526
     12 C         141.6382  142.5585  166.3093 C.ar    1  UNL1        0.1690
     13 F         142.3513  142.1863  167.5753 F       1  UNL1       -0.2017
     14 C         142.4237  142.9623  165.0969 C.ar    1  UNL1        0.1689
     15 F         143.9224  142.9940  165.1505 F       1  UNL1       -0.2017
     16 C         141.7104  143.3345  163.8308 C.ar    1  UNL1        0.0507
     17 C         140.2118  143.3028  163.7772 C.ar    1  UNL1        0.0813
     18 C         140.7925  145.5741  156.5619 C.3     1  UNL1        0.0717
     19 O         138.3467  146.4525  155.0631 O.2     1  UNL1       -0.2701
     20 C         139.4059  147.4522  155.4218 C.2     1  UNL1        0.2458
     21 N         140.6287  147.0131  156.1712 N.am    1  UNL1       -0.3025
     22 H         141.3238  147.6693  156.4066 H       1  UNL1        0.1497
     23 C         139.2420  148.8912  155.0311 C.ar    1  UNL1        0.0534
     24 C         139.7648  149.3741  153.7108 C.ar    1  UNL1        0.0054
     25 C         139.6009  150.8131  153.3201 C.ar    1  UNL1        0.0115
     26 C         138.9143  151.7691  154.2499 C.ar    1  UNL1        0.0577
     27 CL        138.7505  153.2080  153.8592 Cl      1  UNL1       -0.0822
     28 C         138.3916  151.2862  155.5703 C.ar    1  UNL1        0.0115
     29 C         138.5554  149.8473  155.9609 C.ar    1  UNL1        0.0054
     30 C         141.3088  144.5802  155.5641 C.3     1  UNL1        0.0180
     31 C         142.0830  143.3335  155.2537 C.3     1  UNL1        0.0017
     32 C         141.4290  144.1055  154.1463 C.3     1  UNL1        0.0017
@<TRIPOS>BOND
     1    19    20    2
     2    20    21   am
     3    18    21    1
     4    18    30    1
     5    30    31    1
     6    31    32    1
     7     1    18    1
     8     1     2    1
     9     2     3    1
    10     3     4    1
    11     4     7    1
    12     7     8   ar
    13     8     9   ar
    14     9    10   ar
    15    10    11   ar
    16    11    12   ar
    17    12    13    1
    18    12    14   ar
    19    14    15    1
    20    14    16   ar
    21    16    17   ar
    22     4     5    1
    23     6     5    1
    24    20    23    1
    25    23    24   ar
    26    24    25   ar
    27    25    26   ar
    28    26    27    1
    29    26    28   ar
    30    28    29   ar
    31    32    30    1
    32     6     1    1
    33    29    23   ar
    34     6     2    1
    35    17     7   ar
    36    17    10   ar
    37    21    22    1
@<TRIPOS>MOLECULE
*****
 32 37 0 0 0
SMALL
GASTEIGER

@<TRIPOS>ATOM
      1 C         141.1429  139.0394  158.5336 C.3     1  UNL1        0.0181
      2 C         142.0789  137.9937  158.0040 C.3     1  UNL1        0.0036
      3 C         142.7684  136.8623  157.3007 C.3     1  UNL1        0.0227
      4 C         141.7846  136.2340  156.3586 C.3     1  UNL1        0.0870
      5 C         140.4872  136.9770  156.4797 C.3     1  UNL1        0.0227
      6 C         140.6691  138.0646  157.4966 C.3     1  UNL1        0.0036
      7 N         142.0515  135.0674  155.4542 N.ar    1  UNL1       -0.3109
      8 C         141.5379  134.9012  154.0547 C.ar    1  UNL1        0.1785
      9 N         142.0479  133.5933  153.5262 N.ar    1  UNL1       -0.2239
     10 C         142.8766  132.9512  154.5990 C.ar    1  UNL1        0.1011
     11 C         143.6295  131.6547  154.6448 C.ar    1  UNL1        0.0526
     12 C         144.3847  131.2691  155.8822 C.ar    1  UNL1        0.1690
     13 F         145.1375  129.9726  155.9280 F       1  UNL1       -0.2017
     14 C         144.3869  132.1802  157.0738 C.ar    1  UNL1        0.1689
     15 F         145.1421  131.7948  158.3112 F       1  UNL1       -0.2017
     16 C         143.6340  133.4768  157.0280 C.ar    1  UNL1        0.0507
     17 C         142.8789  133.8623  155.7906 C.ar    1  UNL1        0.0813
     18 C         140.8761  140.2060  159.4379 C.3     1  UNL1        0.0717
     19 O         138.1076  139.4361  160.2998 O.2     1  UNL1       -0.2701
     20 C         139.1950  139.5915  161.3212 C.2     1  UNL1        0.2458
     21 N         140.5792  139.9764  160.8903 N.am    1  UNL1       -0.3025
     22 H         141.2929  140.0784  161.5607 H       1  UNL1        0.1497
     23 C         138.8981  139.3620  162.7735 C.ar    1  UNL1        0.0534
     24 C         139.1384  138.0132  163.3841 C.ar    1  UNL1        0.0054
     25 C         138.8415  137.7837  164.8365 C.ar    1  UNL1        0.0115
     26 C         138.3043  138.9031  165.6781 C.ar    1  UNL1        0.0577
     27 CL        138.0074  138.6737  167.1304 Cl      1  UNL1       -0.0822
     28 C         138.0641  140.2520  165.0675 C.ar    1  UNL1        0.0115
     29 C         138.3610  140.4814  163.6152 C.ar    1  UNL1        0.0054
     30 C         140.9062  141.6020  158.8902 C.3     1  UNL1        0.0180
     31 C         141.1253  142.5428  157.7426 C.3     1  UNL1        0.0017
     32 C         140.7392  143.0794  159.0890 C.3     1  UNL1        0.0017
@<TRIPOS>BOND
     1    19    20    2
     2    20    21   am
     3    18    21    1
     4    18    30    1
     5    30    31    1
     6    31    32    1
     7     1    18    1
     8     1     2    1
     9     2     3    1
    10     3     4    1
    11     4     7    1
    12     7     8   ar
    13     8     9   ar
    14     9    10   ar
    15    10    11   ar
    16    11    12   ar
    17    12    13    1
    18    12    14   ar
    19    14    15    1
    20    14    16   ar
    21    16    17   ar
    22     4     5    1
    23     6     5    1
    24    20    23    1
    25    23    24   ar
    26    24    25   ar
    27    25    26   ar
    28    26    27    1
    29    26    28   ar
    30    28    29   ar
    31    32    30    1
    32     6     1    1
    33    29    23   ar
    34     6     2    1
    35    17     7   ar
    36    17    10   ar
    37    21    22    1
@<TRIPOS>MOLECULE
*****
 32 37 0 0 0
SMALL
GASTEIGER

@<TRIPOS>ATOM
      1 C         138.8709  139.6967  160.6351 C.3     1  UNL1        0.0181
      2 C         138.2651  140.1181  161.9411 C.3     1  UNL1        0.0036
      3 C         137.8823  140.3574  163.3715 C.3     1  UNL1        0.0227
      4 C         138.8216  139.5740  164.2400 C.3     1  UNL1        0.0870
      5 C         139.7849  138.8507  163.3463 C.3     1  UNL1        0.0227
      6 C         139.4411  139.1869  161.9254 C.3     1  UNL1        0.0036
      7 N         138.8010  139.5231  165.7390 N.ar    1  UNL1       -0.3109
      8 C         137.8189  138.7650  166.5820 C.ar    1  UNL1        0.1785
      9 N         138.1700  138.9946  168.0221 N.ar    1  UNL1       -0.2239
     10 C         139.3690  139.8946  168.0692 C.ar    1  UNL1        0.1011
     11 C         140.1561  140.4590  169.2146 C.ar    1  UNL1        0.0526
     12 C         141.3333  141.3499  168.9489 C.ar    1  UNL1        0.1690
     13 F         142.1204  141.9143  170.0943 F       1  UNL1       -0.2017
     14 C         141.7233  141.6765  167.5378 C.ar    1  UNL1        0.1689
     15 F         142.9004  142.5675  167.2721 F       1  UNL1       -0.2017
     16 C         140.9362  141.1122  166.3924 C.ar    1  UNL1        0.0507
     17 C         139.7591  140.2212  166.6581 C.ar    1  UNL1        0.0813
     18 C         138.8913  139.7478  159.1361 C.3     1  UNL1        0.0717
     19 O         141.7122  139.7675  158.1153 O.2     1  UNL1       -0.2701
     20 C         140.8242  138.5898  157.8426 C.2     1  UNL1        0.2458
     21 N         139.4138  138.5799  158.3530 N.am    1  UNL1       -0.3025
     22 H         138.8310  137.8069  158.1740 H       1  UNL1        0.1497
     23 C         141.3467  137.4220  157.0594 C.ar    1  UNL1        0.0534
     24 C         142.6996  136.8545  157.3717 C.ar    1  UNL1        0.0054
     25 C         143.2221  135.6867  156.5885 C.ar    1  UNL1        0.0115
     26 C         142.3916  135.0865  155.4931 C.ar    1  UNL1        0.0577
     27 CL        142.9140  133.9187  154.7100 Cl      1  UNL1       -0.0822
     28 C         141.0386  135.6540  155.1809 C.ar    1  UNL1        0.0115
     29 C         140.5162  136.8218  155.9640 C.ar    1  UNL1        0.0054
     30 C         138.3893  140.9665  158.4202 C.3     1  UNL1        0.0180
     31 C         138.2423  142.4571  158.3390 C.3     1  UNL1        0.0017
     32 C         137.6667  141.5869  157.2613 C.3     1  UNL1        0.0017
@<TRIPOS>BOND
     1    19    20    2
     2    20    21   am
     3    18    21    1
     4    18    30    1
     5    30    31    1
     6    31    32    1
     7     1    18    1
     8     1     2    1
     9     2     3    1
    10     3     4    1
    11     4     7    1
    12     7     8   ar
    13     8     9   ar
    14     9    10   ar
    15    10    11   ar
    16    11    12   ar
    17    12    13    1
    18    12    14   ar
    19    14    15    1
    20    14    16   ar
    21    16    17   ar
    22     4     5    1
    23     6     5    1
    24    20    23    1
    25    23    24   ar
    26    24    25   ar
    27    25    26   ar
    28    26    27    1
    29    26    28   ar
    30    28    29   ar
    31    32    30    1
    32     6     1    1
    33    29    23   ar
    34     6     2    1
    35    17     7   ar
    36    17    10   ar
    37    21    22    1
@<TRIPOS>MOLECULE
*****
 32 37 0 0 0
SMALL
GASTEIGER

@<TRIPOS>ATOM
      1 C         140.4205  138.4899  158.2507 C.3     1  UNL1        0.0181
      2 C         141.2574  138.9835  159.3936 C.3     1  UNL1        0.0036
      3 C         141.8173  139.5421  160.6681 C.3     1  UNL1        0.0227
      4 C         140.6671  139.9566  161.5372 C.3     1  UNL1        0.0870
      5 C         139.3964  139.6541  160.7998 C.3     1  UNL1        0.0227
      6 C         139.7612  139.0527  159.4749 C.3     1  UNL1        0.0036
      7 N         140.7697  140.5664  162.9038 N.ar    1  UNL1       -0.3109
      8 C         141.6576  140.0929  164.0162 C.ar    1  UNL1        0.1785
      9 N         141.4390  140.9908  165.1978 N.ar    1  UNL1       -0.2239
     10 C         140.4160  142.0191  164.8157 C.ar    1  UNL1        0.1011
     11 C         139.8078  143.1604  165.5755 C.ar    1  UNL1        0.0526
     12 C         138.7858  144.0396  164.9176 C.ar    1  UNL1        0.1690
     13 F         138.1776  145.1809  165.6774 F       1  UNL1       -0.2017
     14 C         138.3722  143.7773  163.4998 C.ar    1  UNL1        0.1689
     15 F         137.3503  144.6564  162.8418 F       1  UNL1       -0.2017
     16 C         138.9805  142.6359  162.7399 C.ar    1  UNL1        0.0507
     17 C         140.0024  141.7569  163.3979 C.ar    1  UNL1        0.0813
     18 C         140.3180  137.8801  156.8842 C.3     1  UNL1        0.0717
     19 O         143.2847  137.4342  156.8730 O.2     1  UNL1       -0.2701
     20 C         142.3526  136.2851  156.6263 C.2     1  UNL1        0.2458
     21 N         140.8694  136.5080  156.6320 N.am    1  UNL1       -0.3025
     22 H         140.2577  135.7538  156.4701 H       1  UNL1        0.1497
     23 C         142.9040  134.9131  156.3741 C.ar    1  UNL1        0.0534
     24 C         143.7250  134.2295  157.4269 C.ar    1  UNL1        0.0054
     25 C         144.2764  132.8574  157.1746 C.ar    1  UNL1        0.0115
     26 C         144.0066  132.1691  155.8695 C.ar    1  UNL1        0.0577
     27 CL        144.5579  130.7971  155.6173 Cl      1  UNL1       -0.0822
     28 C         143.1855  132.8527  154.8167 C.ar    1  UNL1        0.0115
     29 C         142.6342  134.2247  155.0690 C.ar    1  UNL1        0.0054
     30 C         139.6643  138.6421  155.7698 C.3     1  UNL1        0.0180
     31 C         138.5892  139.5697  155.2862 C.3     1  UNL1        0.0017
     32 C         139.6071  139.0345  154.3231 C.3     1  UNL1        0.0017
@<TRIPOS>BOND
     1    19    20    2
     2    20    21   am
     3    18    21    1
     4    18    30    1
     5    30    31    1
     6    31    32    1
     7     1    18    1
     8     1     2    1
     9     2     3    1
    10     3     4    1
    11     4     7    1
    12     7     8   ar
    13     8     9   ar
    14     9    10   ar
    15    10    11   ar
    16    11    12   ar
    17    12    13    1
    18    12    14   ar
    19    14    15    1
    20    14    16   ar
    21    16    17   ar
    22     4     5    1
    23     6     5    1
    24    20    23    1
    25    23    24   ar
    26    24    25   ar
    27    25    26   ar
    28    26    27    1
    29    26    28   ar
    30    28    29   ar
    31    32    30    1
    32     6     1    1
    33    29    23   ar
    34     6     2    1
    35    17     7   ar
    36    17    10   ar
    37    21    22    1
@<TRIPOS>MOLECULE
*****
 32 37 0 0 0
SMALL
GASTEIGER

@<TRIPOS>ATOM
      1 C         142.0195  138.1934  159.4016 C.3     1  UNL1        0.0181
      2 C         140.9565  138.8135  160.2595 C.3     1  UNL1        0.0036
      3 C         140.0526  139.3008  161.3529 C.3     1  UNL1        0.0227
      4 C         140.5907  138.7957  162.6588 C.3     1  UNL1        0.0870
      5 C         141.8272  137.9962  162.3725 C.3     1  UNL1        0.0227
      6 C         142.0533  138.0072  160.8896 C.3     1  UNL1        0.0036
      7 N         139.9966  139.0461  164.0131 N.ar    1  UNL1       -0.3109
      8 C         138.7864  138.3682  164.5841 C.ar    1  UNL1        0.1785
      9 N         138.5503  138.9216  165.9582 N.ar    1  UNL1       -0.2239
     10 C         139.6144  139.9415  166.2364 C.ar    1  UNL1        0.1011
     11 C         139.8849  140.8100  167.4290 C.ar    1  UNL1        0.0526
     12 C         141.0494  141.7556  167.4196 C.ar    1  UNL1        0.1690
     13 F         141.3199  142.6241  168.6122 F       1  UNL1       -0.2017
     14 C         141.9433  141.8326  166.2175 C.ar    1  UNL1        0.1689
     15 F         143.1076  142.7781  166.2080 F       1  UNL1       -0.2017
     16 C         141.6727  140.9640  165.0248 C.ar    1  UNL1        0.0507
     17 C         140.5083  140.0184  165.0343 C.ar    1  UNL1        0.0813
     18 C         142.6135  137.9431  158.0473 C.3     1  UNL1        0.0717
     19 O         141.2255  136.0890  156.1405 O.2     1  UNL1       -0.2701
     20 C         142.5219  135.6800  156.7745 C.2     1  UNL1        0.2458
     21 N         143.2158  136.6070  157.7278 N.am    1  UNL1       -0.3025
     22 H         144.0667  136.3385  158.1440 H       1  UNL1        0.1497
     23 C         143.1243  134.3438  156.4551 C.ar    1  UNL1        0.0534
     24 C         142.7938  133.6623  155.1604 C.ar    1  UNL1        0.0054
     25 C         143.3961  132.3262  154.8410 C.ar    1  UNL1        0.0115
     26 C         144.3290  131.6717  155.8164 C.ar    1  UNL1        0.0577
     27 CL        144.9314  130.3356  155.4970 Cl      1  UNL1       -0.0822
     28 C         144.6595  132.3533  157.1111 C.ar    1  UNL1        0.0115
     29 C         144.0571  133.6893  157.4304 C.ar    1  UNL1        0.0054
     30 C         142.6052  139.0287  157.0122 C.3     1  UNL1        0.0180
     31 C         143.3327  140.0758  156.2221 C.3     1  UNL1        0.0017
     32 C         141.8633  139.8620  156.0096 C.3     1  UNL1        0.0017
@<TRIPOS>BOND
     1    19    20    2
     2    20    21   am
     3    18    21    1
     4    18    30    1
     5    30    31    1
     6    31    32    1
     7     1    18    1
     8     1     2    1
     9     2     3    1
    10     3     4    1
    11     4     7    1
    12     7     8   ar
    13     8     9   ar
    14     9    10   ar
    15    10    11   ar
    16    11    12   ar
    17    12    13    1
    18    12    14   ar
    19    14    15    1
    20    14    16   ar
    21    16    17   ar
    22     4     5    1
    23     6     5    1
    24    20    23    1
    25    23    24   ar
    26    24    25   ar
    27    25    26   ar
    28    26    27    1
    29    26    28   ar
    30    28    29   ar
    31    32    30    1
    32     6     1    1
    33    29    23   ar
    34     6     2    1
    35    17     7   ar
    36    17    10   ar
    37    21    22    1
@<TRIPOS>MOLECULE
*****
 32 37 0 0 0
SMALL
GASTEIGER

@<TRIPOS>ATOM
      1 C         142.2241  138.0683  158.0921 C.3     1  UNL1        0.0181
      2 C         140.9308  138.3758  158.7871 C.3     1  UNL1        0.0036
      3 C         139.8182  138.7056  159.7375 C.3     1  UNL1        0.0227
      4 C         140.4117  138.8771  161.1043 C.3     1  UNL1        0.0870
      5 C         141.8911  138.6532  160.9988 C.3     1  UNL1        0.0227
      6 C         142.2120  138.3434  159.5666 C.3     1  UNL1        0.0036
      7 N         139.6580  139.2135  162.3569 N.ar    1  UNL1       -0.3109
      8 C         139.2409  138.2434  163.4223 C.ar    1  UNL1        0.1785
      9 N         138.5143  139.0094  164.4877 N.ar    1  UNL1       -0.2239
     10 C         138.4823  140.4528  164.0809 C.ar    1  UNL1        0.1011
     11 C         137.9009  141.6686  164.7395 C.ar    1  UNL1        0.0526
     12 C         138.0263  143.0106  164.0811 C.ar    1  UNL1        0.1690
     13 F         137.4448  144.2263  164.7397 F       1  UNL1       -0.2017
     14 C         138.7332  143.1367  162.7642 C.ar    1  UNL1        0.1689
     15 F         138.8586  144.4786  162.1058 F       1  UNL1       -0.2017
     16 C         139.3147  141.9208  162.1056 C.ar    1  UNL1        0.0507
     17 C         139.1892  140.5789  162.7640 C.ar    1  UNL1        0.0813
     18 C         142.9777  137.7320  156.8395 C.3     1  UNL1        0.0717
     19 O         141.2696  135.5299  155.7287 O.2     1  UNL1       -0.2701
     20 C         142.6972  135.2572  156.0999 C.2     1  UNL1        0.2458
     21 N         143.5511  136.3581  156.6553 N.am    1  UNL1       -0.3025
     22 H         144.4881  136.1791  156.8989 H       1  UNL1        0.1497
     23 C         143.2706  133.8834  155.9157 C.ar    1  UNL1        0.0534
     24 C         144.2362  133.3325  156.9226 C.ar    1  UNL1        0.0054
     25 C         144.8097  131.9587  156.7384 C.ar    1  UNL1        0.0115
     26 C         144.4175  131.1359  155.5471 C.ar    1  UNL1        0.0577
     27 CL        144.9909  129.7621  155.3628 Cl      1  UNL1       -0.0822
     28 C         143.4519  131.6869  154.5401 C.ar    1  UNL1        0.0115
     29 C         142.8784  133.0606  154.7244 C.ar    1  UNL1        0.0054
     30 C         143.1578  138.7693  155.7711 C.3     1  UNL1        0.0180
     31 C         142.6095  139.9014  154.9540 C.3     1  UNL1        0.0017
     32 C         144.0182  139.4339  154.7377 C.3     1  UNL1        0.0017
@<TRIPOS>BOND
     1    19    20    2
     2    20    21   am
     3    18    21    1
     4    18    30    1
     5    30    31    1
     6    31    32    1
     7     1    18    1
     8     1     2    1
     9     2     3    1
    10     3     4    1
    11     4     7    1
    12     7     8   ar
    13     8     9   ar
    14     9    10   ar
    15    10    11   ar
    16    11    12   ar
    17    12    13    1
    18    12    14   ar
    19    14    15    1
    20    14    16   ar
    21    16    17   ar
    22     4     5    1
    23     6     5    1
    24    20    23    1
    25    23    24   ar
    26    24    25   ar
    27    25    26   ar
    28    26    27    1
    29    26    28   ar
    30    28    29   ar
    31    32    30    1
    32     6     1    1
    33    29    23   ar
    34     6     2    1
    35    17     7   ar
    36    17    10   ar
    37    21    22    1
