@<TRIPOS>MOLECULE
*****
 35 38 0 0 0
SMALL
GASTEIGER

@<TRIPOS>ATOM
      1 C         142.8138  137.8287  157.1024 C.ar    1  UNL1        0.2245
      2 N         142.3199  139.0329  156.3567 N.ar    1  UNL1       -0.1912
      3 C         141.3719  139.9883  157.0188 C.ar    1  UNL1        0.2037
      4 N         140.9177  139.7396  158.4265 N.ar    1  UNL1       -0.1912
      5 C         141.4115  138.5354  159.1723 C.ar    1  UNL1        0.2240
      6 N         142.3596  137.5799  158.5102 N.ar    1  UNL1       -0.1806
      7 N         140.9573  138.2867  160.5800 N.pl3   1  UNL1       -0.2779
      8 C         139.4925  138.2010  160.8914 C.3     1  UNL1        0.0961
      9 C         139.0383  137.9523  162.2992 C.3     1  UNL1        0.0511
     10 C         140.0490  137.7892  163.3956 C.3     1  UNL1        0.1191
     11 C         141.5138  137.8749  163.0842 C.3     1  UNL1        0.0511
     12 C         141.9679  138.1236  161.6764 C.3     1  UNL1        0.0961
     13 O         139.5948  137.5405  164.8034 O.3     1  UNL1       -0.3514
     14 C         138.5874  138.4525  165.4386 C.3     1  UNL1        0.1685
     15 C         138.7602  139.9399  165.3483 C.ar    1  UNL1        0.0072
     16 C         137.8743  140.7443  164.4439 C.ar    1  UNL1       -0.0022
     17 C         138.0470  142.2315  164.3535 C.ar    1  UNL1       -0.0045
     18 C         139.1057  142.9143  165.1676 C.ar    1  UNL1       -0.0219
     19 C         139.2785  144.4017  165.0772 C.3     1  UNL1        0.0310
     20 C         139.9917  142.1100  166.0720 C.ar    1  UNL1       -0.0045
     21 C         139.8190  140.6227  166.1624 C.ar    1  UNL1       -0.0022
     22 N         143.7618  136.8733  156.4403 N.pl3   1  UNL1       -0.2826
     23 H         144.7282  137.0609  156.4382 H       1  UNL1        0.1551
     24 C         142.7073  133.0900  155.8700 C.ar    1  UNL1        0.0474
     25 C         142.1883  133.1493  154.4639 C.ar    1  UNL1        0.0144
     26 C         142.1938  134.4499  153.7166 C.ar    1  UNL1        0.0025
     27 C         142.7183  135.6912  154.3754 C.ar    1  UNL1        0.0144
     28 C         143.2373  135.6319  155.7814 C.ar    1  UNL1        0.0476
     29 C         143.2317  134.3313  156.5288 C.ar    1  UNL1        0.0051
     30 C         143.7507  134.2721  157.9349 C.3     1  UNL1        0.0336
     31 C         143.9410  129.6544  157.4269 C.3     1  UNL1        0.0949
     32 C         143.9466  130.9549  156.6796 C.2     1  UNL1        0.2266
     33 O         145.1970  131.4210  155.9945 O.2     1  UNL1       -0.2748
     34 N         142.7017  131.7895  156.6173 N.am    1  UNL1       -0.2841
     35 H         141.8810  131.4836  157.0669 H       1  UNL1        0.1548
@<TRIPOS>BOND
     1    31    32    1
     2    32    33    2
     3    32    34   am
     4    34    24    1
     5    24    25   ar
     6    25    26   ar
     7    26    27   ar
     8    27    28   ar
     9    28    22    1
    10    22     1    1
    11     1     2   ar
    12     2     3   ar
    13     3     4   ar
    14     4     5   ar
    15     5     7    1
    16     7     8    1
    17     8     9    1
    18     9    10    1
    19    10    13    1
    20    13    14    1
    21    14    15    1
    22    15    16   ar
    23    16    17   ar
    24    17    18   ar
    25    18    19    1
    26    18    20   ar
    27    20    21   ar
    28    10    11    1
    29    11    12    1
    30     5     6   ar
    31    28    29   ar
    32    29    30    1
    33    29    24   ar
    34     6     1   ar
    35    12     7    1
    36    21    15   ar
    37    34    35    1
    38    22    23    1
@<TRIPOS>MOLECULE
*****
 35 38 0 0 0
SMALL
GASTEIGER

@<TRIPOS>ATOM
      1 C         143.5366  140.1267  157.9986 C.ar    1  UNL1        0.2245
      2 N         143.6716  139.0687  156.9439 N.ar    1  UNL1       -0.1912
      3 C         142.9803  137.7483  157.1132 C.ar    1  UNL1        0.2037
      4 N         142.1540  137.4859  158.3372 N.ar    1  UNL1       -0.1912
      5 C         142.0190  138.5438  159.3921 C.ar    1  UNL1        0.2240
      6 N         142.7103  139.8642  159.2227 N.ar    1  UNL1       -0.1806
      7 N         141.1928  138.2814  160.6161 N.pl3   1  UNL1       -0.2779
      8 C         141.8604  137.9009  161.9043 C.3     1  UNL1        0.0961
      9 C         141.0342  137.6385  163.1283 C.3     1  UNL1        0.0511
     10 C         139.5401  137.7565  163.0642 C.3     1  UNL1        0.1191
     11 C         138.8725  138.1369  161.7760 C.3     1  UNL1        0.0511
     12 C         139.6988  138.3994  160.5519 C.3     1  UNL1        0.0961
     13 O         138.7138  137.4940  164.2883 O.3     1  UNL1       -0.3514
     14 C         138.9112  138.3280  165.5194 C.3     1  UNL1        0.1685
     15 C         138.9700  139.8229  165.4110 C.ar    1  UNL1        0.0072
     16 C         138.0031  140.5492  164.5235 C.ar    1  UNL1       -0.0022
     17 C         138.0620  142.0441  164.4152 C.ar    1  UNL1       -0.0045
     18 C         139.0877  142.8127  165.1943 C.ar    1  UNL1       -0.0219
     19 C         139.1466  144.3077  165.0860 C.3     1  UNL1        0.0310
     20 C         140.0546  142.0864  166.0818 C.ar    1  UNL1       -0.0045
     21 C         139.9958  140.5916  166.1901 C.ar    1  UNL1       -0.0022
     22 N         144.2279  141.4471  157.8293 N.pl3   1  UNL1       -0.2826
     23 H         145.2112  141.4937  157.8464 H       1  UNL1        0.1551
     24 C         142.1659  144.7427  158.6277 C.ar    1  UNL1        0.0474
     25 C         141.8075  145.1951  157.2432 C.ar    1  UNL1        0.0144
     26 C         142.2558  144.3982  156.0541 C.ar    1  UNL1        0.0025
     27 C         143.0626  143.1489  156.2495 C.ar    1  UNL1        0.0144
     28 C         143.4211  142.6965  157.6339 C.ar    1  UNL1        0.0476
     29 C         142.9727  143.4933  158.8230 C.ar    1  UNL1        0.0051
     30 C         143.3313  143.0408  160.2075 C.3     1  UNL1        0.0336
     31 C         139.9186  146.0880  161.6092 C.3     1  UNL1        0.0949
     32 C         140.3670  145.2911  160.4201 C.2     1  UNL1        0.2266
     33 O         139.4646  144.2458  159.8343 O.2     1  UNL1       -0.2748
     34 N         141.7176  145.5395  159.8168 N.am    1  UNL1       -0.2841
     35 H         142.3098  146.2256  160.2013 H       1  UNL1        0.1548
@<TRIPOS>BOND
     1    31    32    1
     2    32    33    2
     3    32    34   am
     4    34    24    1
     5    24    25   ar
     6    25    26   ar
     7    26    27   ar
     8    27    28   ar
     9    28    22    1
    10    22     1    1
    11     1     2   ar
    12     2     3   ar
    13     3     4   ar
    14     4     5   ar
    15     5     7    1
    16     7     8    1
    17     8     9    1
    18     9    10    1
    19    10    13    1
    20    13    14    1
    21    14    15    1
    22    15    16   ar
    23    16    17   ar
    24    17    18   ar
    25    18    19    1
    26    18    20   ar
    27    20    21   ar
    28    10    11    1
    29    11    12    1
    30     5     6   ar
    31    28    29   ar
    32    29    30    1
    33    29    24   ar
    34     6     1   ar
    35    12     7    1
    36    21    15   ar
    37    34    35    1
    38    22    23    1
@<TRIPOS>MOLECULE
*****
 35 38 0 0 0
SMALL
GASTEIGER

@<TRIPOS>ATOM
      1 C         138.8723  138.3334  162.5013 C.ar    1  UNL1        0.2245
      2 N         137.7192  139.2688  162.2885 N.ar    1  UNL1       -0.1912
      3 C         137.5056  139.9027  160.9458 C.ar    1  UNL1        0.2037
      4 N         138.4451  139.6011  159.8161 N.ar    1  UNL1       -0.1912
      5 C         139.5982  138.6656  160.0289 C.ar    1  UNL1        0.2240
      6 N         139.8118  138.0317  161.3715 N.ar    1  UNL1       -0.1806
      7 N         140.5377  138.3640  158.8991 N.pl3   1  UNL1       -0.2779
      8 C         139.9948  138.0139  157.5454 C.3     1  UNL1        0.0961
      9 C         140.9342  137.7123  156.4156 C.3     1  UNL1        0.0511
     10 C         142.4167  137.7608  156.6396 C.3     1  UNL1        0.1191
     11 C         142.9596  138.1109  157.9933 C.3     1  UNL1        0.0511
     12 C         142.0200  138.4125  159.1231 C.3     1  UNL1        0.0961
     13 O         143.3561  137.4592  155.5098 O.3     1  UNL1       -0.3514
     14 C         144.0680  136.1399  155.4582 C.3     1  UNL1        0.1685
     15 C         143.2843  134.8702  155.3039 C.ar    1  UNL1        0.0072
     16 C         143.3640  133.8067  156.3586 C.ar    1  UNL1       -0.0022
     17 C         142.5803  132.5371  156.2044 C.ar    1  UNL1       -0.0045
     18 C         141.7168  132.3310  154.9953 C.ar    1  UNL1       -0.0219
     19 C         140.9330  131.0614  154.8410 C.3     1  UNL1        0.0310
     20 C         141.6371  133.3946  153.9405 C.ar    1  UNL1       -0.0045
     21 C         142.4208  134.6642  154.0948 C.ar    1  UNL1       -0.0022
     22 N         139.0859  137.6995  163.8439 N.pl3   1  UNL1       -0.2826
     23 H         138.5204  136.9454  164.1278 H       1  UNL1        0.1551
     24 C         140.8944  139.7024  166.7539 C.ar    1  UNL1        0.0474
     25 C         142.3117  139.2454  166.5742 C.ar    1  UNL1        0.0144
     26 C         142.6538  138.2732  165.4843 C.ar    1  UNL1        0.0025
     27 C         141.5786  137.7579  164.5743 C.ar    1  UNL1        0.0144
     28 C         140.1612  138.2148  164.7540 C.ar    1  UNL1        0.0476
     29 C         139.8192  139.1871  165.8438 C.ar    1  UNL1        0.0051
     30 C         138.4017  139.6440  166.0236 C.3     1  UNL1        0.0336
     31 C         140.4064  143.1179  168.7151 C.3     1  UNL1        0.0949
     32 C         140.7484  142.1456  167.6253 C.2     1  UNL1        0.2266
     33 O         141.2867  142.6444  166.3170 O.2     1  UNL1       -0.2748
     34 N         140.5523  140.6747  167.8437 N.am    1  UNL1       -0.2841
     35 H         140.1991  140.3473  168.7024 H       1  UNL1        0.1548
@<TRIPOS>BOND
     1    31    32    1
     2    32    33    2
     3    32    34   am
     4    34    24    1
     5    24    25   ar
     6    25    26   ar
     7    26    27   ar
     8    27    28   ar
     9    28    22    1
    10    22     1    1
    11     1     2   ar
    12     2     3   ar
    13     3     4   ar
    14     4     5   ar
    15     5     7    1
    16     7     8    1
    17     8     9    1
    18     9    10    1
    19    10    13    1
    20    13    14    1
    21    14    15    1
    22    15    16   ar
    23    16    17   ar
    24    17    18   ar
    25    18    19    1
    26    18    20   ar
    27    20    21   ar
    28    10    11    1
    29    11    12    1
    30     5     6   ar
    31    28    29   ar
    32    29    30    1
    33    29    24   ar
    34     6     1   ar
    35    12     7    1
    36    21    15   ar
    37    34    35    1
    38    22    23    1
@<TRIPOS>MOLECULE
*****
 35 38 0 0 0
SMALL
GASTEIGER

@<TRIPOS>ATOM
      1 C         142.3098  137.2526  157.2183 C.ar    1  UNL1        0.2245
      2 N         140.8319  137.4560  157.0620 N.ar    1  UNL1       -0.1912
      3 C         140.0748  138.2640  158.0739 C.ar    1  UNL1        0.2037
      4 N         140.7956  138.8686  159.2421 N.ar    1  UNL1       -0.1912
      5 C         142.2735  138.6653  159.3985 C.ar    1  UNL1        0.2240
      6 N         143.0307  137.8573  158.3866 N.ar    1  UNL1       -0.1806
      7 N         142.9943  139.2699  160.5668 N.pl3   1  UNL1       -0.2779
      8 C         143.6895  140.5907  160.4173 C.3     1  UNL1        0.0961
      9 C         144.4103  141.1953  161.5855 C.3     1  UNL1        0.0511
     10 C         144.4358  140.4792  162.9034 C.3     1  UNL1        0.1191
     11 C         143.7406  139.1585  163.0529 C.3     1  UNL1        0.0511
     12 C         143.0199  138.5539  161.8845 C.3     1  UNL1        0.0961
     13 O         145.1566  141.0839  164.0716 O.3     1  UNL1       -0.3514
     14 C         144.9136  142.5167  164.4430 C.3     1  UNL1        0.1685
     15 C         143.5109  143.0410  164.5316 C.ar    1  UNL1        0.0072
     16 C         142.5123  142.3644  165.4232 C.ar    1  UNL1       -0.0022
     17 C         141.1097  142.8886  165.5119 C.ar    1  UNL1       -0.0045
     18 C         140.7057  144.0894  164.7090 C.ar    1  UNL1       -0.0219
     19 C         139.3031  144.6137  164.7976 C.3     1  UNL1        0.0310
     20 C         141.7043  144.7660  163.8174 C.ar    1  UNL1       -0.0045
     21 C         143.1069  144.2418  163.7287 C.ar    1  UNL1       -0.0022
     22 N         143.0669  136.4446  156.2065 N.pl3   1  UNL1       -0.2826
     23 H         143.8458  136.8349  155.7479 H       1  UNL1        0.1551
     24 C         142.5860  132.5161  156.4993 C.ar    1  UNL1        0.0474
     25 C         141.7780  132.2368  155.2668 C.ar    1  UNL1        0.0144
     26 C         141.3996  133.3601  154.3475 C.ar    1  UNL1        0.0025
     27 C         141.8292  134.7627  154.6607 C.ar    1  UNL1        0.0144
     28 C         142.6372  135.0420  155.8932 C.ar    1  UNL1        0.0476
     29 C         143.0156  133.9187  156.8125 C.ar    1  UNL1        0.0051
     30 C         143.8237  134.1981  158.0450 C.3     1  UNL1        0.0336
     31 C         144.6413  129.5449  158.1417 C.3     1  UNL1        0.0949
     32 C         144.2629  130.6682  157.2224 C.2     1  UNL1        0.2266
     33 O         145.1832  131.0668  156.1069 O.2     1  UNL1       -0.2748
     34 N         142.9644  131.3929  157.4186 N.am    1  UNL1       -0.2841
     35 H         142.3604  131.1313  158.1508 H       1  UNL1        0.1548
@<TRIPOS>BOND
     1    31    32    1
     2    32    33    2
     3    32    34   am
     4    34    24    1
     5    24    25   ar
     6    25    26   ar
     7    26    27   ar
     8    27    28   ar
     9    28    22    1
    10    22     1    1
    11     1     2   ar
    12     2     3   ar
    13     3     4   ar
    14     4     5   ar
    15     5     7    1
    16     7     8    1
    17     8     9    1
    18     9    10    1
    19    10    13    1
    20    13    14    1
    21    14    15    1
    22    15    16   ar
    23    16    17   ar
    24    17    18   ar
    25    18    19    1
    26    18    20   ar
    27    20    21   ar
    28    10    11    1
    29    11    12    1
    30     5     6   ar
    31    28    29   ar
    32    29    30    1
    33    29    24   ar
    34     6     1   ar
    35    12     7    1
    36    21    15   ar
    37    34    35    1
    38    22    23    1
@<TRIPOS>MOLECULE
*****
 35 38 0 0 0
SMALL
GASTEIGER

@<TRIPOS>ATOM
      1 C         142.6419  137.8299  157.0371 C.ar    1  UNL1        0.2245
      2 N         142.1720  138.9760  156.1911 N.ar    1  UNL1       -0.1912
      3 C         141.1421  139.9280  156.7230 C.ar    1  UNL1        0.2037
      4 N         140.5821  139.7340  158.1010 N.ar    1  UNL1       -0.1912
      5 C         141.0520  138.5880  158.9471 C.ar    1  UNL1        0.2240
      6 N         142.0819  137.6359  158.4152 N.ar    1  UNL1       -0.1806
      7 N         140.4920  138.3940  160.3250 N.pl3   1  UNL1       -0.2779
      8 C         139.0288  138.6077  160.5769 C.3     1  UNL1        0.0961
      9 C         138.4689  138.4138  161.9548 C.3     1  UNL1        0.0511
     10 C         139.3720  138.0061  163.0809 C.3     1  UNL1        0.1191
     11 C         140.8352  137.7924  162.8291 C.3     1  UNL1        0.0511
     12 C         141.3952  137.9863  161.4510 C.3     1  UNL1        0.0961
     13 O         138.8121  137.8121  164.4589 O.3     1  UNL1       -0.3514
     14 C         138.6007  138.9955  165.3560 C.3     1  UNL1        0.1685
     15 C         139.6334  139.3510  166.3843 C.ar    1  UNL1        0.0072
     16 C         139.2097  139.7359  167.7708 C.ar    1  UNL1       -0.0022
     17 C         140.2422  140.0914  168.7991 C.ar    1  UNL1       -0.0045
     18 C         141.6985  140.0620  168.4408 C.ar    1  UNL1       -0.0219
     19 C         142.7312  140.4176  169.4691 C.3     1  UNL1        0.0310
     20 C         142.1222  139.6772  167.0543 C.ar    1  UNL1       -0.0045
     21 C         141.0896  139.3217  166.0261 C.ar    1  UNL1       -0.0022
     22 N         143.6718  136.8779  156.5052 N.pl3   1  UNL1       -0.2826
     23 H         144.6226  137.1333  156.5008 H       1  UNL1        0.1551
     24 C         142.8709  132.9939  156.3522 C.ar    1  UNL1        0.0474
     25 C         142.4155  132.8542  154.9299 C.ar    1  UNL1        0.0144
     26 C         142.3790  134.0557  154.0326 C.ar    1  UNL1        0.0025
     27 C         142.7977  135.3969  154.5577 C.ar    1  UNL1        0.0144
     28 C         143.2530  135.5366  155.9801 C.ar    1  UNL1        0.0476
     29 C         143.2896  134.3351  156.8773 C.ar    1  UNL1        0.0051
     30 C         143.7449  134.4749  158.2997 C.3     1  UNL1        0.0336
     31 C         144.1838  129.7503  158.2243 C.3     1  UNL1        0.0949
     32 C         144.1472  130.9518  157.3270 C.2     1  UNL1        0.2266
     33 O         145.3506  131.3126  156.5073 O.2     1  UNL1       -0.2748
     34 N         142.9074  131.7924  157.2495 N.am    1  UNL1       -0.2841
     35 H         142.1177  131.5556  157.7875 H       1  UNL1        0.1548
@<TRIPOS>BOND
     1    31    32    1
     2    32    33    2
     3    32    34   am
     4    34    24    1
     5    24    25   ar
     6    25    26   ar
     7    26    27   ar
     8    27    28   ar
     9    28    22    1
    10    22     1    1
    11     1     2   ar
    12     2     3   ar
    13     3     4   ar
    14     4     5   ar
    15     5     7    1
    16     7     8    1
    17     8     9    1
    18     9    10    1
    19    10    13    1
    20    13    14    1
    21    14    15    1
    22    15    16   ar
    23    16    17   ar
    24    17    18   ar
    25    18    19    1
    26    18    20   ar
    27    20    21   ar
    28    10    11    1
    29    11    12    1
    30     5     6   ar
    31    28    29   ar
    32    29    30    1
    33    29    24   ar
    34     6     1   ar
    35    12     7    1
    36    21    15   ar
    37    34    35    1
    38    22    23    1
@<TRIPOS>MOLECULE
*****
 35 38 0 0 0
SMALL
GASTEIGER

@<TRIPOS>ATOM
      1 C         136.2871  140.9622  156.4079 C.ar    1  UNL1        0.2245
      2 N         136.4305  142.2345  155.6265 N.ar    1  UNL1       -0.1912
      3 C         137.4309  143.2677  156.0527 C.ar    1  UNL1        0.2037
      4 N         138.2878  143.0287  157.2603 N.ar    1  UNL1       -0.1912
      5 C         138.1444  141.7564  158.0418 C.ar    1  UNL1        0.2240
      6 N         137.1440  140.7232  157.6157 N.ar    1  UNL1       -0.1806
      7 N         139.0014  141.5174  159.2495 N.pl3   1  UNL1       -0.2779
      8 C         140.4236  141.0705  159.0834 C.3     1  UNL1        0.0961
      9 C         141.2805  140.8315  160.2911 C.3     1  UNL1        0.0511
     10 C         140.7153  141.0393  161.6649 C.3     1  UNL1        0.1191
     11 C         139.2931  141.4862  161.8310 C.3     1  UNL1        0.0511
     12 C         138.4361  141.7253  160.6232 C.3     1  UNL1        0.0961
     13 O         141.5722  140.8003  162.8725 O.3     1  UNL1       -0.3514
     14 C         141.5744  139.4552  163.5364 C.3     1  UNL1        0.1685
     15 C         140.4720  139.0847  164.4838 C.ar    1  UNL1        0.0072
     16 C         140.0062  140.0699  165.5145 C.ar    1  UNL1       -0.0022
     17 C         138.9039  139.6994  166.4619 C.ar    1  UNL1       -0.0045
     18 C         138.2674  138.3437  166.3786 C.ar    1  UNL1       -0.0219
     19 C         137.1650  137.9732  167.3260 C.3     1  UNL1        0.0310
     20 C         138.7332  137.3585  165.3479 C.ar    1  UNL1       -0.0045
     21 C         139.8355  137.7290  164.4005 C.ar    1  UNL1       -0.0022
     22 N         135.2867  139.9290  155.9818 N.pl3   1  UNL1       -0.2826
     23 H         135.5905  139.0347  155.7040 H       1  UNL1        0.1551
     24 C         131.4637  140.0312  157.0423 C.ar    1  UNL1        0.0474
     25 C         130.8965  140.9170  155.9729 C.ar    1  UNL1        0.0144
     26 C         131.7926  141.4735  154.9065 C.ar    1  UNL1        0.0025
     27 C         133.2560  141.1442  154.9094 C.ar    1  UNL1        0.0144
     28 C         133.8232  140.2584  155.9788 C.ar    1  UNL1        0.0476
     29 C         132.9271  139.7019  157.0452 C.ar    1  UNL1        0.0051
     30 C         133.4944  138.8160  158.1146 C.3     1  UNL1        0.0336
     31 C         128.8977  137.6583  158.9224 C.3     1  UNL1        0.0949
     32 C         129.7938  138.2148  157.8560 C.2     1  UNL1        0.2266
     33 O         129.9162  137.5113  156.5368 O.2     1  UNL1       -0.2748
     34 N         130.5676  139.4747  158.1087 N.am    1  UNL1       -0.2841
     35 H         130.4872  139.9364  158.9745 H       1  UNL1        0.1548
@<TRIPOS>BOND
     1    31    32    1
     2    32    33    2
     3    32    34   am
     4    34    24    1
     5    24    25   ar
     6    25    26   ar
     7    26    27   ar
     8    27    28   ar
     9    28    22    1
    10    22     1    1
    11     1     2   ar
    12     2     3   ar
    13     3     4   ar
    14     4     5   ar
    15     5     7    1
    16     7     8    1
    17     8     9    1
    18     9    10    1
    19    10    13    1
    20    13    14    1
    21    14    15    1
    22    15    16   ar
    23    16    17   ar
    24    17    18   ar
    25    18    19    1
    26    18    20   ar
    27    20    21   ar
    28    10    11    1
    29    11    12    1
    30     5     6   ar
    31    28    29   ar
    32    29    30    1
    33    29    24   ar
    34     6     1   ar
    35    12     7    1
    36    21    15   ar
    37    34    35    1
    38    22    23    1
@<TRIPOS>MOLECULE
*****
 35 38 0 0 0
SMALL
GASTEIGER

@<TRIPOS>ATOM
      1 C         140.3864  139.9257  165.2769 C.ar    1  UNL1        0.2245
      2 N         139.3480  138.9890  165.8193 N.ar    1  UNL1       -0.1912
      3 C         138.8731  137.8336  164.9888 C.ar    1  UNL1        0.2037
      4 N         139.4365  137.6151  163.6160 N.ar    1  UNL1       -0.1912
      5 C         140.4750  138.5519  163.0735 C.ar    1  UNL1        0.2240
      6 N         140.9499  139.7072  163.9040 N.ar    1  UNL1       -0.1806
      7 N         141.0384  138.3334  161.7007 N.pl3   1  UNL1       -0.2779
      8 C         140.2276  138.6932  160.4911 C.3     1  UNL1        0.0961
      9 C         140.7911  138.4747  159.1183 C.3     1  UNL1        0.0511
     10 C         142.1654  137.8962  158.9550 C.3     1  UNL1        0.1191
     11 C         142.9763  137.5364  160.1646 C.3     1  UNL1        0.0511
     12 C         142.4127  137.7549  161.5374 C.3     1  UNL1        0.0961
     13 O         142.7289  137.6777  157.5822 O.3     1  UNL1       -0.3514
     14 C         142.1045  136.6661  156.6674 C.3     1  UNL1        0.1685
     15 C         142.7511  135.3259  156.4783 C.ar    1  UNL1        0.0072
     16 C         142.6722  134.6360  155.1487 C.ar    1  UNL1       -0.0022
     17 C         143.3188  133.2959  154.9595 C.ar    1  UNL1       -0.0045
     18 C         144.0444  132.6456  156.0999 C.ar    1  UNL1       -0.0219
     19 C         144.6911  131.3054  155.9108 C.3     1  UNL1        0.0310
     20 C         144.1234  133.3354  157.4295 C.ar    1  UNL1       -0.0045
     21 C         143.4767  134.6756  157.6187 C.ar    1  UNL1       -0.0022
     22 N         140.8613  141.0811  166.1074 N.pl3   1  UNL1       -0.2826
     23 H         140.6846  141.0967  167.0758 H       1  UNL1        0.1551
     24 C         141.5934  144.4683  164.1733 C.ar    1  UNL1        0.0474
     25 C         143.0934  144.4757  164.1723 C.ar    1  UNL1        0.0144
     26 C         143.8493  143.3515  164.8164 C.ar    1  UNL1        0.0025
     27 C         143.1053  142.2200  165.4614 C.ar    1  UNL1        0.0144
     28 C         141.6053  142.2126  165.4623 C.ar    1  UNL1        0.0476
     29 C         140.8494  143.3368  164.8183 C.ar    1  UNL1        0.0051
     30 C         139.3494  143.3294  164.8193 C.3     1  UNL1        0.0336
     31 C         139.5759  146.5725  161.4804 C.3     1  UNL1        0.0949
     32 C         140.3318  145.4484  162.1244 C.2     1  UNL1        0.2266
     33 O         140.5821  144.1800  161.3636 O.2     1  UNL1       -0.2748
     34 N         140.8375  145.5925  163.5292 N.am    1  UNL1       -0.2841
     35 H         140.6732  146.4249  164.0286 H       1  UNL1        0.1548
@<TRIPOS>BOND
     1    31    32    1
     2    32    33    2
     3    32    34   am
     4    34    24    1
     5    24    25   ar
     6    25    26   ar
     7    26    27   ar
     8    27    28   ar
     9    28    22    1
    10    22     1    1
    11     1     2   ar
    12     2     3   ar
    13     3     4   ar
    14     4     5   ar
    15     5     7    1
    16     7     8    1
    17     8     9    1
    18     9    10    1
    19    10    13    1
    20    13    14    1
    21    14    15    1
    22    15    16   ar
    23    16    17   ar
    24    17    18   ar
    25    18    19    1
    26    18    20   ar
    27    20    21   ar
    28    10    11    1
    29    11    12    1
    30     5     6   ar
    31    28    29   ar
    32    29    30    1
    33    29    24   ar
    34     6     1   ar
    35    12     7    1
    36    21    15   ar
    37    34    35    1
    38    22    23    1
@<TRIPOS>MOLECULE
*****
 35 38 0 0 0
SMALL
GASTEIGER

@<TRIPOS>ATOM
      1 C         142.8727  137.9314  157.0749 C.ar    1  UNL1        0.2245
      2 N         143.7381  139.1554  157.0226 N.ar    1  UNL1       -0.1912
      3 C         143.7669  140.1038  158.1844 C.ar    1  UNL1        0.2037
      4 N         142.9304  139.8280  159.3986 N.ar    1  UNL1       -0.1912
      5 C         142.0650  138.6039  159.4509 C.ar    1  UNL1        0.2240
      6 N         142.0362  137.6555  158.2891 N.ar    1  UNL1       -0.1806
      7 N         141.2286  138.3281  160.6651 N.pl3   1  UNL1       -0.2779
      8 C         139.7397  138.5001  160.6050 C.3     1  UNL1        0.0961
      9 C         138.9032  138.2243  161.8191 C.3     1  UNL1        0.0511
     10 C         139.5556  137.7765  163.0935 C.3     1  UNL1        0.1191
     11 C         141.0445  137.6045  163.1536 C.3     1  UNL1        0.0511
     12 C         141.8810  137.8803  161.9394 C.3     1  UNL1        0.0961
     13 O         138.7191  137.5008  164.3076 O.3     1  UNL1       -0.3514
     14 C         138.8750  138.3497  165.5344 C.3     1  UNL1        0.1685
     15 C         138.9678  139.8415  165.4073 C.ar    1  UNL1        0.0072
     16 C         140.0762  140.5850  166.0920 C.ar    1  UNL1       -0.0022
     17 C         140.1690  142.0767  165.9650 C.ar    1  UNL1       -0.0045
     18 C         139.1536  142.8249  165.1533 C.ar    1  UNL1       -0.0219
     19 C         139.2464  144.3166  165.0262 C.3     1  UNL1        0.0310
     20 C         138.0452  142.0814  164.4686 C.ar    1  UNL1       -0.0045
     21 C         137.9524  140.5897  164.5956 C.ar    1  UNL1       -0.0022
     22 N         142.8439  136.9830  155.9131 N.pl3   1  UNL1       -0.2826
     23 H         142.8360  137.3323  154.9926 H       1  UNL1        0.1551
     24 C         141.8385  133.1527  155.6523 C.ar    1  UNL1        0.0474
     25 C         142.7930  132.5416  156.6347 C.ar    1  UNL1        0.0144
     26 C         143.7646  133.4109  157.3766 C.ar    1  UNL1        0.0025
     27 C         143.7816  134.8913  157.1361 C.ar    1  UNL1        0.0144
     28 C         142.8270  135.5025  156.1537 C.ar    1  UNL1        0.0476
     29 C         141.8554  134.6332  155.4118 C.ar    1  UNL1        0.0051
     30 C         140.9008  135.2444  154.4293 C.3     1  UNL1        0.0336
     31 C         140.2846  130.8076  152.8530 C.3     1  UNL1        0.0949
     32 C         141.2562  131.6769  153.5949 C.2     1  UNL1        0.2266
     33 O         142.6171  131.9397  153.0212 O.2     1  UNL1       -0.2748
     34 N         140.8669  132.2834  154.9104 N.am    1  UNL1       -0.2841
     35 H         139.9737  132.1109  155.2869 H       1  UNL1        0.1548
@<TRIPOS>BOND
     1    31    32    1
     2    32    33    2
     3    32    34   am
     4    34    24    1
     5    24    25   ar
     6    25    26   ar
     7    26    27   ar
     8    27    28   ar
     9    28    22    1
    10    22     1    1
    11     1     2   ar
    12     2     3   ar
    13     3     4   ar
    14     4     5   ar
    15     5     7    1
    16     7     8    1
    17     8     9    1
    18     9    10    1
    19    10    13    1
    20    13    14    1
    21    14    15    1
    22    15    16   ar
    23    16    17   ar
    24    17    18   ar
    25    18    19    1
    26    18    20   ar
    27    20    21   ar
    28    10    11    1
    29    11    12    1
    30     5     6   ar
    31    28    29   ar
    32    29    30    1
    33    29    24   ar
    34     6     1   ar
    35    12     7    1
    36    21    15   ar
    37    34    35    1
    38    22    23    1
@<TRIPOS>MOLECULE
*****
 35 38 0 0 0
SMALL
GASTEIGER

@<TRIPOS>ATOM
      1 C         142.8911  137.1239  155.7924 C.ar    1  UNL1        0.2245
      2 N         141.7895  137.9072  155.1420 N.ar    1  UNL1       -0.1912
      3 C         141.0835  138.9865  155.9079 C.ar    1  UNL1        0.2037
      4 N         141.4790  139.2826  157.3242 N.ar    1  UNL1       -0.1912
      5 C         142.5806  138.4993  157.9746 C.ar    1  UNL1        0.2240
      6 N         143.2867  137.4199  157.2087 N.ar    1  UNL1       -0.1806
      7 N         142.9762  138.7953  159.3909 N.pl3   1  UNL1       -0.2779
      8 C         143.0508  137.6849  160.3965 C.3     1  UNL1        0.0961
      9 C         143.4464  137.9810  161.8128 C.3     1  UNL1        0.0511
     10 C         143.7673  139.3875  162.2235 C.3     1  UNL1        0.1191
     11 C         143.6926  140.4980  161.2178 C.3     1  UNL1        0.0511
     12 C         143.2971  140.2019  159.8015 C.3     1  UNL1        0.0961
     13 O         144.1628  139.6836  163.6397 O.3     1  UNL1       -0.3514
     14 C         143.6862  138.7977  164.7524 C.3     1  UNL1        0.1685
     15 C         142.2517  138.8469  165.1882 C.ar    1  UNL1        0.0072
     16 C         141.7916  139.9160  166.1343 C.ar    1  UNL1       -0.0022
     17 C         140.3572  139.9652  166.5702 C.ar    1  UNL1       -0.0045
     18 C         139.3829  138.9453  166.0598 C.ar    1  UNL1       -0.0219
     19 C         137.9484  138.9945  166.4957 C.3     1  UNL1        0.0310
     20 C         139.8430  137.8761  165.1137 C.ar    1  UNL1       -0.0045
     21 C         141.2774  137.8269  164.6779 C.ar    1  UNL1       -0.0022
     22 N         143.5971  136.0445  155.0265 N.pl3   1  UNL1       -0.2826
     23 H         144.4466  136.2406  154.5693 H       1  UNL1        0.1551
     24 C         142.6072  132.3348  156.0307 C.ar    1  UNL1        0.0474
     25 C         141.8318  131.9105  154.8189 C.ar    1  UNL1        0.0144
     26 C         141.6448  132.8641  153.6762 C.ar    1  UNL1        0.0025
     27 C         142.2332  134.2421  153.7454 C.ar    1  UNL1        0.0144
     28 C         143.0086  134.6665  154.9573 C.ar    1  UNL1        0.0476
     29 C         143.1956  133.7128  156.0999 C.ar    1  UNL1        0.0051
     30 C         143.9711  134.1373  157.3118 C.3     1  UNL1        0.0336
     31 C         144.1943  129.5468  158.3669 C.3     1  UNL1        0.0949
     32 C         144.0073  130.5004  157.2243 C.2     1  UNL1        0.2266
     33 O         145.0334  130.5732  156.1325 O.2     1  UNL1       -0.2748
     34 N         142.7942  131.3812  157.1733 N.am    1  UNL1       -0.2841
     35 H         142.1208  131.3334  157.8899 H       1  UNL1        0.1548
@<TRIPOS>BOND
     1    31    32    1
     2    32    33    2
     3    32    34   am
     4    34    24    1
     5    24    25   ar
     6    25    26   ar
     7    26    27   ar
     8    27    28   ar
     9    28    22    1
    10    22     1    1
    11     1     2   ar
    12     2     3   ar
    13     3     4   ar
    14     4     5   ar
    15     5     7    1
    16     7     8    1
    17     8     9    1
    18     9    10    1
    19    10    13    1
    20    13    14    1
    21    14    15    1
    22    15    16   ar
    23    16    17   ar
    24    17    18   ar
    25    18    19    1
    26    18    20   ar
    27    20    21   ar
    28    10    11    1
    29    11    12    1
    30     5     6   ar
    31    28    29   ar
    32    29    30    1
    33    29    24   ar
    34     6     1   ar
    35    12     7    1
    36    21    15   ar
    37    34    35    1
    38    22    23    1
