@<TRIPOS>MOLECULE
*****
 38 43 0 0 0
SMALL
GASTEIGER

@<TRIPOS>ATOM
      1 N         140.5346  139.9211  164.5663 N.am    1  UNL1       -0.2681
      2 C         140.8726  138.7929  163.6374 C.2     1  UNL1        0.3079
      3 O         140.4037  137.4017  163.9453 O.2     1  UNL1       -0.2522
      4 N         141.6794  139.0558  162.4004 N.am    1  UNL1       -0.2594
      5 C         142.0174  137.9276  161.4715 C.3     1  UNL1        0.1016
      6 C         142.8242  138.1906  160.2347 C.3     1  UNL1        0.0672
      7 C         143.2931  139.5818  159.9268 C.ar    1  UNL1        0.0614
      8 N         144.1000  139.8447  158.6898 N.ar    1  UNL1       -0.2311
      9 C         144.5689  141.2359  158.3819 C.ar    1  UNL1        0.1619
     10 N         144.2309  142.3641  159.3109 N.ar    1  UNL1       -0.2268
     11 C         143.4240  142.1011  160.5478 C.ar    1  UNL1        0.0814
     12 C         142.9551  140.7100  160.8557 C.ar    1  UNL1        0.0291
     13 C         142.1483  140.4470  162.0925 C.3     1  UNL1        0.1243
     14 H         140.8423  140.8341  164.3642 H       1  UNL1        0.1564
     15 C         145.3757  141.4989  157.1451 C.ar    1  UNL1        0.0390
     16 C         146.4858  142.5073  157.1741 C.ar    1  UNL1        0.0064
     17 C         147.2926  142.7702  155.9371 C.ar    1  UNL1        0.0403
     18 C         146.9894  142.0248  154.6713 C.ar    1  UNL1        0.1764
     19 C         145.8793  141.0164  154.6423 C.ar    1  UNL1        0.1765
     20 C         145.0724  140.7534  155.8792 C.ar    1  UNL1        0.0432
     21 O         145.8128  140.4399  153.2591 O.3     1  UNL1       -0.4346
     22 C         146.8817  141.0919  152.4332 C.3     1  UNL1        0.4294
     23 O         147.6089  142.0715  153.3060 O.3     1  UNL1       -0.4346
     24 C         143.0861  143.2293  161.4767 C.ar    1  UNL1        0.0135
     25 C         144.0472  143.6234  162.5588 C.ar    1  UNL1        0.0012
     26 C         143.7092  144.7517  163.4877 C.ar    1  UNL1        0.0000
     27 C         142.4101  145.4858  163.3345 C.ar    1  UNL1       -0.0003
     28 C         141.4490  145.0916  162.2524 C.ar    1  UNL1       -0.0042
     29 C         141.7869  143.9634  161.3235 C.ar    1  UNL1       -0.0204
     30 C         140.8258  143.5693  160.2414 C.3     1  UNL1        0.0311
     31 C         139.3665  139.9537  168.3590 C.ar    1  UNL1       -0.0210
     32 C         138.1141  139.1323  168.2769 C.ar    1  UNL1       -0.0042
     33 C         137.6685  138.5738  166.9580 C.ar    1  UNL1        0.0010
     34 C         138.4753  138.8367  165.7212 C.ar    1  UNL1        0.0147
     35 C         139.7277  139.6581  165.8032 C.ar    1  UNL1        0.0513
     36 C         140.1733  140.2166  167.1221 C.ar    1  UNL1        0.0104
     37 C         139.9750  141.9935  169.8486 C.3     1  UNL1        0.0050
     38 C         139.8121  140.5122  169.6779 C.3     1  UNL1        0.0264
@<TRIPOS>BOND
     1    37    38    1
     2    38    31    1
     3    31    32   ar
     4    32    33   ar
     5    33    34   ar
     6    34    35   ar
     7    35     1    1
     8     1     2   am
     9     2     3    2
    10     2     4   am
    11     4     5    1
    12     5     6    1
    13     6     7    1
    14     7     8   ar
    15     8     9   ar
    16     9    15    1
    17    15    16   ar
    18    16    17   ar
    19    17    18   ar
    20    18    19   ar
    21    19    20   ar
    22    19    21    1
    23    21    22    1
    24    22    23    1
    25     9    10   ar
    26    10    11   ar
    27    11    24    1
    28    24    25   ar
    29    25    26   ar
    30    26    27   ar
    31    27    28   ar
    32    28    29   ar
    33    29    30    1
    34    11    12   ar
    35    12    13    1
    36    35    36   ar
    37    36    31   ar
    38    13     4    1
    39    12     7   ar
    40    20    15   ar
    41    29    24   ar
    42    23    18    1
    43     1    14    1
@<TRIPOS>MOLECULE
*****
 38 43 0 0 0
SMALL
GASTEIGER

@<TRIPOS>ATOM
      1 N         140.5085  140.1522  165.3532 N.am    1  UNL1       -0.2681
      2 C         139.7745  139.0911  164.5883 C.2     1  UNL1        0.3079
      3 O         139.5776  137.7320  165.1918 O.2     1  UNL1       -0.2522
      4 N         139.2374  139.3889  163.2197 N.am    1  UNL1       -0.2594
      5 C         138.5034  138.3277  162.4548 C.3     1  UNL1        0.1016
      6 C         137.9663  138.6256  161.0863 C.3     1  UNL1        0.0672
      7 C         138.1632  139.9846  160.4828 C.ar    1  UNL1        0.0614
      8 N         137.6261  140.2824  159.1142 N.ar    1  UNL1       -0.2311
      9 C         137.8229  141.6414  158.5107 C.ar    1  UNL1        0.1619
     10 N         138.5570  142.7026  159.2757 N.ar    1  UNL1       -0.2268
     11 C         139.0941  142.4048  160.6441 C.ar    1  UNL1        0.0814
     12 C         138.8972  141.0458  161.2477 C.ar    1  UNL1        0.0291
     13 C         139.4343  140.7479  162.6162 C.3     1  UNL1        0.1243
     14 H         140.6377  141.0442  164.9570 H       1  UNL1        0.1564
     15 C         137.2858  141.9393  157.1422 C.ar    1  UNL1        0.0390
     16 C         137.7961  143.1248  156.3779 C.ar    1  UNL1        0.0064
     17 C         137.2590  143.4226  155.0093 C.ar    1  UNL1        0.0403
     18 C         136.2116  142.5350  154.4052 C.ar    1  UNL1        0.1764
     19 C         135.7013  141.3495  155.1695 C.ar    1  UNL1        0.1765
     20 C         136.2384  141.0516  156.5380 C.ar    1  UNL1        0.0432
     21 O         134.6735  140.6593  154.3225 O.3     1  UNL1       -0.4346
     22 C         134.5486  141.4182  153.0347 C.3     1  UNL1        0.4294
     23 O         135.4992  142.5775  153.0858 O.3     1  UNL1       -0.4346
     24 C         139.8280  143.4660  161.4090 C.ar    1  UNL1        0.0135
     25 C         141.2677  143.7527  161.1006 C.ar    1  UNL1        0.0012
     26 C         142.0017  144.8139  161.8656 C.ar    1  UNL1        0.0000
     27 C         141.2960  145.5884  162.9389 C.ar    1  UNL1       -0.0003
     28 C         139.8563  145.3017  163.2474 C.ar    1  UNL1       -0.0042
     29 C         139.1223  144.2405  162.4825 C.ar    1  UNL1       -0.0204
     30 C         137.6827  143.9538  162.7909 C.3     1  UNL1        0.0311
     31 C         140.7497  139.8490  169.3029 C.ar    1  UNL1       -0.0210
     32 C         142.1198  139.2588  169.4587 C.ar    1  UNL1       -0.0042
     33 C         142.9529  138.9664  168.2461 C.ar    1  UNL1        0.0010
     34 C         142.4158  139.2642  166.8776 C.ar    1  UNL1        0.0147
     35 C         141.0457  139.8544  166.7217 C.ar    1  UNL1        0.0513
     36 C         140.2126  140.1468  167.9344 C.ar    1  UNL1        0.0104
     37 C         138.4268  140.2635  170.3904 C.3     1  UNL1        0.0050
     38 C         139.9166  140.1414  170.5155 C.3     1  UNL1        0.0264
@<TRIPOS>BOND
     1    37    38    1
     2    38    31    1
     3    31    32   ar
     4    32    33   ar
     5    33    34   ar
     6    34    35   ar
     7    35     1    1
     8     1     2   am
     9     2     3    2
    10     2     4   am
    11     4     5    1
    12     5     6    1
    13     6     7    1
    14     7     8   ar
    15     8     9   ar
    16     9    15    1
    17    15    16   ar
    18    16    17   ar
    19    17    18   ar
    20    18    19   ar
    21    19    20   ar
    22    19    21    1
    23    21    22    1
    24    22    23    1
    25     9    10   ar
    26    10    11   ar
    27    11    24    1
    28    24    25   ar
    29    25    26   ar
    30    26    27   ar
    31    27    28   ar
    32    28    29   ar
    33    29    30    1
    34    11    12   ar
    35    12    13    1
    36    35    36   ar
    37    36    31   ar
    38    13     4    1
    39    12     7   ar
    40    20    15   ar
    41    29    24   ar
    42    23    18    1
    43     1    14    1
@<TRIPOS>MOLECULE
*****
 38 43 0 0 0
SMALL
GASTEIGER

@<TRIPOS>ATOM
      1 N         141.5883  141.4446  165.8871 N.am    1  UNL1       -0.2681
      2 C         140.4549  142.3970  165.6458 C.2     1  UNL1        0.3079
      3 O         139.9363  143.2455  166.7687 O.2     1  UNL1       -0.2522
      4 N         139.8401  142.5009  164.2815 N.am    1  UNL1       -0.2594
      5 C         138.7067  143.4533  164.0402 C.3     1  UNL1        0.1016
      6 C         138.0919  143.5571  162.6759 C.3     1  UNL1        0.0672
      7 C         138.6105  142.7086  161.5530 C.ar    1  UNL1        0.0614
      8 N         137.9956  142.8125  160.1887 N.ar    1  UNL1       -0.2311
      9 C         138.5143  141.9639  159.0657 C.ar    1  UNL1        0.1619
     10 N         139.6477  141.0115  159.3071 N.ar    1  UNL1       -0.2268
     11 C         140.2625  140.9076  160.6713 C.ar    1  UNL1        0.0814
     12 C         139.7439  141.7562  161.7943 C.ar    1  UNL1        0.0291
     13 C         140.3587  141.6523  163.1585 C.3     1  UNL1        0.1243
     14 H         141.9287  140.8877  165.1500 H       1  UNL1        0.1564
     15 C         137.8995  142.0678  157.7015 C.ar    1  UNL1        0.0390
     16 C         137.0198  140.9660  157.1894 C.ar    1  UNL1        0.0064
     17 C         136.4050  141.0699  155.8251 C.ar    1  UNL1        0.0403
     18 C         136.6699  142.2755  154.9729 C.ar    1  UNL1        0.1764
     19 C         137.5496  143.3773  155.4850 C.ar    1  UNL1        0.1765
     20 C         138.1644  143.2734  156.8493 C.ar    1  UNL1        0.0432
     21 O         137.6292  144.4368  154.4262 O.3     1  UNL1       -0.4346
     22 C         136.7988  143.9898  153.2597 C.3     1  UNL1        0.4294
     23 O         136.2059  142.6541  153.5976 O.3     1  UNL1       -0.4346
     24 C         141.3959  139.9552  160.9126 C.ar    1  UNL1        0.0135
     25 C         142.8121  140.4106  160.7203 C.ar    1  UNL1        0.0012
     26 C         143.9456  139.4581  160.9616 C.ar    1  UNL1        0.0000
     27 C         143.6628  138.0504  161.3953 C.ar    1  UNL1       -0.0003
     28 C         142.2466  137.5950  161.5876 C.ar    1  UNL1       -0.0042
     29 C         141.1132  138.5474  161.3463 C.ar    1  UNL1       -0.0204
     30 C         139.6970  138.0920  161.5387 C.3     1  UNL1        0.0311
     31 C         142.5622  140.0260  169.4633 C.ar    1  UNL1       -0.0210
     32 C         143.4328  141.1329  169.9798 C.ar    1  UNL1       -0.0042
     33 C         143.6886  142.3436  169.1321 C.ar    1  UNL1        0.0010
     34 C         143.0738  142.4476  167.7679 C.ar    1  UNL1        0.0147
     35 C         142.2032  141.3407  167.2514 C.ar    1  UNL1        0.0513
     36 C         141.9474  140.1299  168.0991 C.ar    1  UNL1        0.0104
     37 C         143.2913  137.6840  170.3195 C.3     1  UNL1        0.0050
     38 C         142.3064  138.8152  170.3110 C.3     1  UNL1        0.0264
@<TRIPOS>BOND
     1    37    38    1
     2    38    31    1
     3    31    32   ar
     4    32    33   ar
     5    33    34   ar
     6    34    35   ar
     7    35     1    1
     8     1     2   am
     9     2     3    2
    10     2     4   am
    11     4     5    1
    12     5     6    1
    13     6     7    1
    14     7     8   ar
    15     8     9   ar
    16     9    15    1
    17    15    16   ar
    18    16    17   ar
    19    17    18   ar
    20    18    19   ar
    21    19    20   ar
    22    19    21    1
    23    21    22    1
    24    22    23    1
    25     9    10   ar
    26    10    11   ar
    27    11    24    1
    28    24    25   ar
    29    25    26   ar
    30    26    27   ar
    31    27    28   ar
    32    28    29   ar
    33    29    30    1
    34    11    12   ar
    35    12    13    1
    36    35    36   ar
    37    36    31   ar
    38    13     4    1
    39    12     7   ar
    40    20    15   ar
    41    29    24   ar
    42    23    18    1
    43     1    14    1
@<TRIPOS>MOLECULE
*****
 38 43 0 0 0
SMALL
GASTEIGER

@<TRIPOS>ATOM
      1 N         141.8008  141.2943  166.0943 N.am    1  UNL1       -0.2681
      2 C         142.7229  142.4066  165.6912 C.2     1  UNL1        0.3079
      3 O         143.7241  142.9430  166.6709 O.2     1  UNL1       -0.2522
      4 N         142.6437  142.9826  164.3084 N.am    1  UNL1       -0.2594
      5 C         143.5658  144.0949  163.9054 C.3     1  UNL1        0.1016
      6 C         143.4867  144.6709  162.5227 C.3     1  UNL1        0.0672
      7 C         142.4854  144.1345  161.5430 C.ar    1  UNL1        0.0614
      8 N         142.4063  144.7104  160.1602 N.ar    1  UNL1       -0.2311
      9 C         141.4051  144.1740  159.1805 C.ar    1  UNL1        0.1619
     10 N         140.4830  143.0616  159.5835 N.ar    1  UNL1       -0.2268
     11 C         140.5621  142.4857  160.9663 C.ar    1  UNL1        0.0814
     12 C         141.5634  143.0221  161.9460 C.ar    1  UNL1        0.0291
     13 C         141.6425  142.4462  163.3287 C.3     1  UNL1        0.1243
     14 H         141.1437  140.9423  165.4512 H       1  UNL1        0.1564
     15 C         141.3259  144.7500  157.7977 C.ar    1  UNL1        0.0390
     16 C         142.1748  144.1821  156.6990 C.ar    1  UNL1        0.0064
     17 C         142.0956  144.7581  155.3162 C.ar    1  UNL1        0.0403
     18 C         141.1676  145.9019  155.0322 C.ar    1  UNL1        0.1764
     19 C         140.3188  146.4697  156.1309 C.ar    1  UNL1        0.1765
     20 C         140.3979  145.8938  157.5136 C.ar    1  UNL1        0.0432
     21 O         139.5035  147.5894  155.5551 O.3     1  UNL1       -0.4346
     22 C         139.8484  147.7137  154.1006 C.3     1  UNL1        0.4294
     23 O         140.8769  146.6707  153.7774 O.3     1  UNL1       -0.4346
     24 C         139.6401  141.3734  161.3693 C.ar    1  UNL1        0.0135
     25 C         140.0161  139.9487  161.0887 C.ar    1  UNL1        0.0012
     26 C         139.0939  138.8363  161.4918 C.ar    1  UNL1        0.0000
     27 C         137.7959  139.1487  162.1754 C.ar    1  UNL1       -0.0003
     28 C         137.4199  140.5735  162.4560 C.ar    1  UNL1       -0.0042
     29 C         138.3419  141.6858  162.0530 C.ar    1  UNL1       -0.0204
     30 C         137.9659  143.1105  162.3335 C.3     1  UNL1        0.0311
     31 C         141.3364  140.8722  170.0130 C.ar    1  UNL1       -0.0210
     32 C         142.0381  139.5665  170.2425 C.ar    1  UNL1       -0.0042
     33 C         142.6607  138.8367  169.0894 C.ar    1  UNL1        0.0010
     34 C         142.5816  139.4126  167.7066 C.ar    1  UNL1        0.0147
     35 C         141.8799  140.7183  167.4771 C.ar    1  UNL1        0.0513
     36 C         141.2573  141.4481  168.6302 C.ar    1  UNL1        0.0104
     37 C         139.6419  142.6215  170.9178 C.3     1  UNL1        0.0050
     38 C         140.7138  141.6020  171.1661 C.3     1  UNL1        0.0264
@<TRIPOS>BOND
     1    37    38    1
     2    38    31    1
     3    31    32   ar
     4    32    33   ar
     5    33    34   ar
     6    34    35   ar
     7    35     1    1
     8     1     2   am
     9     2     3    2
    10     2     4   am
    11     4     5    1
    12     5     6    1
    13     6     7    1
    14     7     8   ar
    15     8     9   ar
    16     9    15    1
    17    15    16   ar
    18    16    17   ar
    19    17    18   ar
    20    18    19   ar
    21    19    20   ar
    22    19    21    1
    23    21    22    1
    24    22    23    1
    25     9    10   ar
    26    10    11   ar
    27    11    24    1
    28    24    25   ar
    29    25    26   ar
    30    26    27   ar
    31    27    28   ar
    32    28    29   ar
    33    29    30    1
    34    11    12   ar
    35    12    13    1
    36    35    36   ar
    37    36    31   ar
    38    13     4    1
    39    12     7   ar
    40    20    15   ar
    41    29    24   ar
    42    23    18    1
    43     1    14    1
@<TRIPOS>MOLECULE
*****
 38 43 0 0 0
SMALL
GASTEIGER

@<TRIPOS>ATOM
      1 N         140.7235  141.8311  165.0327 N.am    1  UNL1       -0.2681
      2 C         140.1638  143.2004  164.7845 C.2     1  UNL1        0.3079
      3 O         139.5652  143.9824  165.9159 O.2     1  UNL1       -0.2522
      4 N         140.2028  143.7878  163.4048 N.am    1  UNL1       -0.2594
      5 C         139.6431  145.1572  163.1566 C.3     1  UNL1        0.1016
      6 C         139.6821  145.7445  161.7769 C.3     1  UNL1        0.0672
      7 C         140.2807  144.9625  160.6455 C.ar    1  UNL1        0.0614
      8 N         140.3197  145.5499  159.2658 N.ar    1  UNL1       -0.2311
      9 C         140.9183  144.7679  158.1343 C.ar    1  UNL1        0.1619
     10 N         141.4780  143.3985  158.3826 N.ar    1  UNL1       -0.2268
     11 C         141.4390  142.8111  159.7623 C.ar    1  UNL1        0.0814
     12 C         140.8404  143.5931  160.8937 C.ar    1  UNL1        0.0291
     13 C         140.8014  143.0058  162.2734 C.3     1  UNL1        0.1243
     14 H         141.1163  141.3178  164.2901 H       1  UNL1        0.1564
     15 C         140.9573  145.3552  156.7547 C.ar    1  UNL1        0.0390
     16 C         141.7254  144.6646  155.6670 C.ar    1  UNL1        0.0064
     17 C         141.7644  145.2520  154.2873 C.ar    1  UNL1        0.0403
     18 C         141.0352  146.5299  153.9953 C.ar    1  UNL1        0.1764
     19 C         140.2671  147.2205  155.0830 C.ar    1  UNL1        0.1765
     20 C         140.2281  146.6332  156.4627 C.ar    1  UNL1        0.0432
     21 O         139.6507  148.4581  154.5012 O.3     1  UNL1       -0.4346
     22 C         140.0379  148.5324  153.0540 C.3     1  UNL1        0.4294
     23 O         140.8936  147.3408  152.7413 O.3     1  UNL1       -0.4346
     24 C         141.9986  141.4418  160.0105 C.ar    1  UNL1        0.0135
     25 C         141.1115  140.2374  159.8987 C.ar    1  UNL1        0.0012
     26 C         141.6712  138.8680  160.1469 C.ar    1  UNL1        0.0000
     27 C         143.1179  138.7030  160.5070 C.ar    1  UNL1       -0.0003
     28 C         144.0051  139.9074  160.6188 C.ar    1  UNL1       -0.0042
     29 C         143.4454  141.2768  160.3706 C.ar    1  UNL1       -0.0204
     30 C         144.3325  142.4811  160.4824 C.3     1  UNL1        0.0311
     31 C         141.8143  140.8329  168.7156 C.ar    1  UNL1       -0.0210
     32 C         140.6067  140.0690  169.1717 C.ar    1  UNL1       -0.0042
     33 C         139.4380  139.8924  168.2481 C.ar    1  UNL1        0.0010
     34 C         139.4769  140.4798  166.8685 C.ar    1  UNL1        0.0147
     35 C         140.6845  141.2437  166.4124 C.ar    1  UNL1        0.0513
     36 C         141.8532  141.4202  167.3360 C.ar    1  UNL1        0.0104
     37 C         143.7441  142.3019  169.6470 C.3     1  UNL1        0.0050
     38 C         142.9830  141.0094  169.6392 C.3     1  UNL1        0.0264
@<TRIPOS>BOND
     1    37    38    1
     2    38    31    1
     3    31    32   ar
     4    32    33   ar
     5    33    34   ar
     6    34    35   ar
     7    35     1    1
     8     1     2   am
     9     2     3    2
    10     2     4   am
    11     4     5    1
    12     5     6    1
    13     6     7    1
    14     7     8   ar
    15     8     9   ar
    16     9    15    1
    17    15    16   ar
    18    16    17   ar
    19    17    18   ar
    20    18    19   ar
    21    19    20   ar
    22    19    21    1
    23    21    22    1
    24    22    23    1
    25     9    10   ar
    26    10    11   ar
    27    11    24    1
    28    24    25   ar
    29    25    26   ar
    30    26    27   ar
    31    27    28   ar
    32    28    29   ar
    33    29    30    1
    34    11    12   ar
    35    12    13    1
    36    35    36   ar
    37    36    31   ar
    38    13     4    1
    39    12     7   ar
    40    20    15   ar
    41    29    24   ar
    42    23    18    1
    43     1    14    1
@<TRIPOS>MOLECULE
*****
 38 43 0 0 0
SMALL
GASTEIGER

@<TRIPOS>ATOM
      1 N         141.2157  140.8031  165.8221 N.am    1  UNL1       -0.2681
      2 C         141.9888  139.6360  165.2834 C.2     1  UNL1        0.3079
      3 O         142.1849  138.4121  166.1282 O.2     1  UNL1       -0.2522
      4 N         142.5659  139.6928  163.9000 N.am    1  UNL1       -0.2594
      5 C         143.3390  138.5257  163.3614 C.3     1  UNL1        0.1016
      6 C         143.9160  138.5825  161.9780 C.3     1  UNL1        0.0672
      7 C         143.7199  139.8065  161.1333 C.ar    1  UNL1        0.0614
      8 N         144.2970  139.8632  159.7498 N.ar    1  UNL1       -0.2311
      9 C         144.1009  141.0871  158.9051 C.ar    1  UNL1        0.1619
     10 N         143.3278  142.2543  159.4438 N.ar    1  UNL1       -0.2268
     11 C         142.7508  142.1975  160.8271 C.ar    1  UNL1        0.0814
     12 C         142.9468  140.9736  161.6719 C.ar    1  UNL1        0.0291
     13 C         142.3698  140.9167  163.0553 C.3     1  UNL1        0.1243
     14 H         141.0871  141.6064  165.2676 H       1  UNL1        0.1564
     15 C         144.6779  141.1440  157.5217 C.ar    1  UNL1        0.0390
     16 C         144.1786  140.2074  156.4617 C.ar    1  UNL1        0.0064
     17 C         144.7557  140.2643  155.0783 C.ar    1  UNL1        0.0403
     18 C         145.8320  141.2576  154.7549 C.ar    1  UNL1        0.1764
     19 C         146.3314  142.1942  155.8148 C.ar    1  UNL1        0.1765
     20 C         145.7544  142.1374  157.1982 C.ar    1  UNL1        0.0432
     21 O         147.3936  143.0602  155.2052 O.3     1  UNL1       -0.4346
     22 C         147.5507  142.6590  153.7684 C.3     1  UNL1        0.4294
     23 O         146.5856  141.5449  153.4901 O.3     1  UNL1       -0.4346
     24 C         141.9777  143.3646  161.3658 C.ar    1  UNL1        0.0135
     25 C         140.5422  143.5576  160.9758 C.ar    1  UNL1        0.0012
     26 C         139.7691  144.7247  161.5145 C.ar    1  UNL1        0.0000
     27 C         140.4315  145.6988  162.4431 C.ar    1  UNL1       -0.0003
     28 C         141.8670  145.5058  162.8330 C.ar    1  UNL1       -0.0042
     29 C         142.6401  144.3387  162.2944 C.ar    1  UNL1       -0.0204
     30 C         144.0756  144.1457  162.6843 C.3     1  UNL1        0.0311
     31 C         140.7208  141.4403  169.7078 C.ar    1  UNL1       -0.0210
     32 C         139.4847  140.6329  169.9723 C.ar    1  UNL1       -0.0042
     33 C         138.8255  139.8822  168.8534 C.ar    1  UNL1        0.0010
     34 C         139.4025  139.9389  167.4700 C.ar    1  UNL1        0.0147
     35 C         140.6387  140.7464  167.2055 C.ar    1  UNL1        0.0513
     36 C         141.2978  141.4970  168.3245 C.ar    1  UNL1        0.0104
     37 C         142.6811  142.8990  170.5907 C.3     1  UNL1        0.0050
     38 C         141.3800  142.1910  170.8268 C.3     1  UNL1        0.0264
@<TRIPOS>BOND
     1    37    38    1
     2    38    31    1
     3    31    32   ar
     4    32    33   ar
     5    33    34   ar
     6    34    35   ar
     7    35     1    1
     8     1     2   am
     9     2     3    2
    10     2     4   am
    11     4     5    1
    12     5     6    1
    13     6     7    1
    14     7     8   ar
    15     8     9   ar
    16     9    15    1
    17    15    16   ar
    18    16    17   ar
    19    17    18   ar
    20    18    19   ar
    21    19    20   ar
    22    19    21    1
    23    21    22    1
    24    22    23    1
    25     9    10   ar
    26    10    11   ar
    27    11    24    1
    28    24    25   ar
    29    25    26   ar
    30    26    27   ar
    31    27    28   ar
    32    28    29   ar
    33    29    30    1
    34    11    12   ar
    35    12    13    1
    36    35    36   ar
    37    36    31   ar
    38    13     4    1
    39    12     7   ar
    40    20    15   ar
    41    29    24   ar
    42    23    18    1
    43     1    14    1
@<TRIPOS>MOLECULE
*****
 38 43 0 0 0
SMALL
GASTEIGER

@<TRIPOS>ATOM
      1 N         142.0030  140.6732  165.5815 N.am    1  UNL1       -0.2681
      2 C         142.4710  139.4635  164.8281 C.2     1  UNL1        0.3079
      3 O         143.3822  138.4734  165.4909 O.2     1  UNL1       -0.2522
      4 N         142.0278  139.2440  163.4120 N.am    1  UNL1       -0.2594
      5 C         142.4959  138.0343  162.6587 C.3     1  UNL1        0.1016
      6 C         142.0527  137.8147  161.2426 C.3     1  UNL1        0.0672
      7 C         141.1415  138.8049  160.5798 C.ar    1  UNL1        0.0614
      8 N         140.6983  138.5853  159.1636 N.ar    1  UNL1       -0.2311
      9 C         139.7871  139.5755  158.5009 C.ar    1  UNL1        0.1619
     10 N         139.3191  140.7852  159.2543 N.ar    1  UNL1       -0.2268
     11 C         139.7622  141.0048  160.6703 C.ar    1  UNL1        0.0814
     12 C         140.6734  140.0146  161.3331 C.ar    1  UNL1        0.0291
     13 C         141.1166  140.2341  162.7492 C.3     1  UNL1        0.1243
     14 H         141.4049  141.3231  165.1464 H       1  UNL1        0.1564
     15 C         139.3439  139.3559  157.0848 C.ar    1  UNL1        0.0390
     16 C         138.5550  140.4148  156.3731 C.ar    1  UNL1        0.0064
     17 C         138.1118  140.1952  154.9569 C.ar    1  UNL1        0.0403
     18 C         138.4575  138.9168  154.2525 C.ar    1  UNL1        0.1764
     19 C         139.2464  137.8580  154.9642 C.ar    1  UNL1        0.1765
     20 C         139.6896  138.0775  156.3803 C.ar    1  UNL1        0.0432
     21 O         139.4367  136.7083  154.0198 O.3     1  UNL1       -0.4346
     22 C         138.7654  137.0566  152.7243 C.3     1  UNL1        0.4294
     23 O         138.1603  138.4215  152.8682 O.3     1  UNL1       -0.4346
     24 C         139.2942  142.2145  161.4237 C.ar    1  UNL1        0.0135
     25 C         140.0031  143.5253  161.2526 C.ar    1  UNL1        0.0012
     26 C         139.5350  144.7350  162.0060 C.ar    1  UNL1        0.0000
     27 C         138.3581  144.6339  162.9304 C.ar    1  UNL1       -0.0003
     28 C         137.6492  143.3231  163.1014 C.ar    1  UNL1       -0.0042
     29 C         138.1172  142.1134  162.3481 C.ar    1  UNL1       -0.0204
     30 C         137.4083  140.8026  162.5192 C.3     1  UNL1        0.0311
     31 C         142.6968  140.0316  169.4359 C.ar    1  UNL1       -0.0210
     32 C         143.3324  141.3319  169.8298 C.ar    1  UNL1       -0.0042
     33 C         143.5250  142.4126  168.8076 C.ar    1  UNL1        0.0010
     34 C         143.0818  142.1931  167.3915 C.ar    1  UNL1        0.0147
     35 C         142.4462  140.8928  166.9976 C.ar    1  UNL1        0.0513
     36 C         142.2537  139.8121  168.0198 C.ar    1  UNL1        0.0104
     37 C         143.2763  137.6694  170.3493 C.3     1  UNL1        0.0050
     38 C         142.5043  138.9508  170.4582 C.3     1  UNL1        0.0264
@<TRIPOS>BOND
     1    37    38    1
     2    38    31    1
     3    31    32   ar
     4    32    33   ar
     5    33    34   ar
     6    34    35   ar
     7    35     1    1
     8     1     2   am
     9     2     3    2
    10     2     4   am
    11     4     5    1
    12     5     6    1
    13     6     7    1
    14     7     8   ar
    15     8     9   ar
    16     9    15    1
    17    15    16   ar
    18    16    17   ar
    19    17    18   ar
    20    18    19   ar
    21    19    20   ar
    22    19    21    1
    23    21    22    1
    24    22    23    1
    25     9    10   ar
    26    10    11   ar
    27    11    24    1
    28    24    25   ar
    29    25    26   ar
    30    26    27   ar
    31    27    28   ar
    32    28    29   ar
    33    29    30    1
    34    11    12   ar
    35    12    13    1
    36    35    36   ar
    37    36    31   ar
    38    13     4    1
    39    12     7   ar
    40    20    15   ar
    41    29    24   ar
    42    23    18    1
    43     1    14    1
@<TRIPOS>MOLECULE
*****
 38 43 0 0 0
SMALL
GASTEIGER

@<TRIPOS>ATOM
      1 N         141.0696  140.2666  166.2131 N.am    1  UNL1       -0.2681
      2 C         139.9543  139.3691  165.7652 C.2     1  UNL1        0.3079
      3 O         139.0480  138.7360  166.7790 O.2     1  UNL1       -0.2522
      4 N         139.7454  139.1046  164.3035 N.am    1  UNL1       -0.2594
      5 C         138.6301  138.2071  163.8557 C.3     1  UNL1        0.1016
      6 C         138.4213  137.9426  162.3941 C.3     1  UNL1        0.0672
      7 C         139.3276  138.5756  161.3803 C.ar    1  UNL1        0.0614
      8 N         139.1187  138.3111  159.9186 N.ar    1  UNL1       -0.2311
      9 C         140.0250  138.9442  158.9048 C.ar    1  UNL1        0.1619
     10 N         141.1403  139.8418  159.3527 N.ar    1  UNL1       -0.2268
     11 C         141.3492  140.1062  160.8144 C.ar    1  UNL1        0.0814
     12 C         140.4429  139.4732  161.8281 C.ar    1  UNL1        0.0291
     13 C         140.6518  139.7376  163.2898 C.3     1  UNL1        0.1243
     14 H         141.6644  140.6821  165.5477 H       1  UNL1        0.1564
     15 C         139.8162  138.6797  157.4432 C.ar    1  UNL1        0.0390
     16 C         139.0749  139.6741  156.5995 C.ar    1  UNL1        0.0064
     17 C         138.8661  139.4096  155.1378 C.ar    1  UNL1        0.0403
     18 C         139.3984  138.1507  154.5199 C.ar    1  UNL1        0.1764
     19 C         140.1396  137.1563  155.3636 C.ar    1  UNL1        0.1765
     20 C         140.3485  137.4208  156.8252 C.ar    1  UNL1        0.0432
     21 O         140.5463  136.0126  154.4824 O.3     1  UNL1       -0.4346
     22 C         140.0564  136.3001  153.0941 C.3     1  UNL1        0.4294
     23 O         139.3470  137.6215  153.1173 O.3     1  UNL1       -0.4346
     24 C         142.4645  141.0038  161.2622 C.ar    1  UNL1        0.0135
     25 C         142.2608  142.4893  161.3042 C.ar    1  UNL1        0.0012
     26 C         143.3762  143.3868  161.7521 C.ar    1  UNL1        0.0000
     27 C         144.6951  142.7988  162.1579 C.ar    1  UNL1       -0.0003
     28 C         144.8987  141.3133  162.1159 C.ar    1  UNL1       -0.0042
     29 C         143.7835  140.4158  161.6681 C.ar    1  UNL1       -0.0204
     30 C         143.9871  138.9303  161.6261 C.3     1  UNL1        0.0311
     31 C         140.7342  141.9022  169.8134 C.ar    1  UNL1       -0.0210
     32 C         141.6963  141.0602  170.5980 C.ar    1  UNL1       -0.0042
     33 C         142.4495  139.9538  169.9209 C.ar    1  UNL1        0.0010
     34 C         142.2406  139.6892  168.4593 C.ar    1  UNL1        0.0147
     35 C         141.2785  140.5311  167.6748 C.ar    1  UNL1        0.0513
     36 C         140.5253  141.6376  168.3518 C.ar    1  UNL1        0.0104
     37 C         140.2069  144.4325  170.0764 C.3     1  UNL1        0.0050
     38 C         139.9811  143.0086  170.4905 C.3     1  UNL1        0.0264
@<TRIPOS>BOND
     1    37    38    1
     2    38    31    1
     3    31    32   ar
     4    32    33   ar
     5    33    34   ar
     6    34    35   ar
     7    35     1    1
     8     1     2   am
     9     2     3    2
    10     2     4   am
    11     4     5    1
    12     5     6    1
    13     6     7    1
    14     7     8   ar
    15     8     9   ar
    16     9    15    1
    17    15    16   ar
    18    16    17   ar
    19    17    18   ar
    20    18    19   ar
    21    19    20   ar
    22    19    21    1
    23    21    22    1
    24    22    23    1
    25     9    10   ar
    26    10    11   ar
    27    11    24    1
    28    24    25   ar
    29    25    26   ar
    30    26    27   ar
    31    27    28   ar
    32    28    29   ar
    33    29    30    1
    34    11    12   ar
    35    12    13    1
    36    35    36   ar
    37    36    31   ar
    38    13     4    1
    39    12     7   ar
    40    20    15   ar
    41    29    24   ar
    42    23    18    1
    43     1    14    1
@<TRIPOS>MOLECULE
*****
 38 43 0 0 0
SMALL
GASTEIGER

@<TRIPOS>ATOM
      1 N         140.9305  143.8920  157.6964 N.am    1  UNL1       -0.2681
      2 C         140.5264  144.9422  158.6882 C.2     1  UNL1        0.3079
      3 O         140.0565  146.2841  158.2101 O.2     1  UNL1       -0.2522
      4 N         140.5921  144.6506  160.1581 N.am    1  UNL1       -0.2594
      5 C         140.1880  145.7008  161.1499 C.3     1  UNL1        0.1016
      6 C         140.2537  145.4091  162.6198 C.3     1  UNL1        0.0672
      7 C         140.7235  144.0672  163.0979 C.ar    1  UNL1        0.0614
      8 N         140.7892  143.7756  164.5678 N.ar    1  UNL1       -0.2311
      9 C         141.2591  142.4337  165.0459 C.ar    1  UNL1        0.1619
     10 N         141.6632  141.3835  164.0541 N.ar    1  UNL1       -0.2268
     11 C         141.5975  141.6751  162.5842 C.ar    1  UNL1        0.0814
     12 C         141.1276  143.0170  162.1061 C.ar    1  UNL1        0.0291
     13 C         141.0619  143.3087  160.6362 C.3     1  UNL1        0.1243
     14 H         141.2389  143.0113  158.0102 H       1  UNL1        0.1564
     15 C         141.3248  142.1420  166.5158 C.ar    1  UNL1        0.0390
     16 C         140.4617  142.9104  167.4722 C.ar    1  UNL1        0.0064
     17 C         140.5274  142.6186  168.9422 C.ar    1  UNL1        0.0403
     18 C         141.4562  141.5586  169.4556 C.ar    1  UNL1        0.1764
     19 C         142.3193  140.7903  168.4992 C.ar    1  UNL1        0.1765
     20 C         142.2536  141.0820  167.0293 C.ar    1  UNL1        0.0432
     21 O         143.1321  139.8107  169.2927 O.3     1  UNL1       -0.4346
     22 C         142.7714  139.9735  170.7396 C.3     1  UNL1        0.4294
     23 O         141.7357  141.0538  170.8402 O.3     1  UNL1       -0.4346
     24 C         142.0016  140.6249  161.5924 C.ar    1  UNL1        0.0135
     25 C         140.9718  139.6939  161.0243 C.ar    1  UNL1        0.0012
     26 C         141.3760  138.6436  160.0325 C.ar    1  UNL1        0.0000
     27 C         142.8099  138.5244  159.6088 C.ar    1  UNL1       -0.0003
     28 C         143.8397  139.4554  160.1769 C.ar    1  UNL1       -0.0042
     29 C         143.4356  140.5056  161.1687 C.ar    1  UNL1       -0.0204
     30 C         144.4654  141.4366  161.7368 C.3     1  UNL1        0.0311
     31 C         142.0351  144.8999  154.0202 C.ar    1  UNL1       -0.0210
     32 C         140.7335  144.7669  153.2867 C.ar    1  UNL1       -0.0042
     33 C         139.4976  144.3422  154.0230 C.ar    1  UNL1        0.0010
     34 C         139.5632  144.0506  155.4929 C.ar    1  UNL1        0.0147
     35 C         140.8648  144.1836  156.2264 C.ar    1  UNL1        0.0513
     36 C         142.1007  144.6083  155.4901 C.ar    1  UNL1        0.0104
     37 C         143.2038  146.4459  152.2899 C.3     1  UNL1        0.0050
     38 C         143.2710  145.3246  153.2839 C.3     1  UNL1        0.0264
@<TRIPOS>BOND
     1    37    38    1
     2    38    31    1
     3    31    32   ar
     4    32    33   ar
     5    33    34   ar
     6    34    35   ar
     7    35     1    1
     8     1     2   am
     9     2     3    2
    10     2     4   am
    11     4     5    1
    12     5     6    1
    13     6     7    1
    14     7     8   ar
    15     8     9   ar
    16     9    15    1
    17    15    16   ar
    18    16    17   ar
    19    17    18   ar
    20    18    19   ar
    21    19    20   ar
    22    19    21    1
    23    21    22    1
    24    22    23    1
    25     9    10   ar
    26    10    11   ar
    27    11    24    1
    28    24    25   ar
    29    25    26   ar
    30    26    27   ar
    31    27    28   ar
    32    28    29   ar
    33    29    30    1
    34    11    12   ar
    35    12    13    1
    36    35    36   ar
    37    36    31   ar
    38    13     4    1
    39    12     7   ar
    40    20    15   ar
    41    29    24   ar
    42    23    18    1
    43     1    14    1
