@<TRIPOS>MOLECULE
*****
 38 42 0 0 0
SMALL
GASTEIGER

@<TRIPOS>ATOM
      1 C         140.9929  140.1878  165.2702 C.3     1  UNL1        0.0776
      2 C         142.6100  139.6100  163.3205 C.ar    1  UNL1        0.2211
      3 N         142.9572  139.6615  161.8622 N.ar    1  UNL1       -0.2119
      4 C         142.0344  140.3422  160.8951 C.ar    1  UNL1        0.0844
      5 C         142.3816  140.3936  159.4367 C.ar    1  UNL1        0.0197
      6 C         141.4589  141.0742  158.4697 C.ar    1  UNL1        0.0082
      7 C         140.1889  141.7035  158.9610 C.ar    1  UNL1        0.0347
      8 BR        139.2662  142.3842  157.9939 Br      1  UNL1       -0.0490
      9 C         139.8418  141.6521  160.4193 C.ar    1  UNL1        0.0082
     10 C         140.7645  140.9714  161.3864 C.ar    1  UNL1        0.0181
     11 C         140.4173  140.9199  162.8448 C.ar    1  UNL1        0.0023
     12 C         141.3401  140.2393  163.8118 C.ar    1  UNL1        0.0373
     13 C         144.9508  139.3979  164.4276 C.3     1  UNL1        0.2542
     14 O         143.5327  138.9294  164.2877 O.3     1  UNL1       -0.4563
     15 C         139.8723  139.3104  165.7439 C.ar    1  UNL1       -0.0157
     16 C         139.0418  139.7250  166.9222 C.ar    1  UNL1       -0.0039
     17 C         137.9212  138.8476  167.3959 C.ar    1  UNL1       -0.0003
     18 C         137.6311  137.5556  166.6913 C.ar    1  UNL1       -0.0000
     19 C         138.4615  137.1409  165.5129 C.ar    1  UNL1       -0.0003
     20 C         139.5822  138.0184  165.0392 C.ar    1  UNL1       -0.0039
     21 C         141.7663  141.0138  166.2549 C.3     1  UNL1        0.1158
     22 O         142.3404  139.7635  166.8527 O.3     1  UNL1       -0.3820
     23 H         143.2249  139.6067  166.4866 H       1  UNL1        0.2107
     24 C         141.1923  142.2640  165.6571 C.ar    1  UNL1        0.0024
     25 C         139.7531  142.6155  165.8923 C.ar    1  UNL1       -0.0020
     26 C         139.1791  143.8657  165.2945 C.ar    1  UNL1       -0.0002
     27 C         140.0442  144.7645  164.4615 C.ar    1  UNL1       -0.0000
     28 C         141.4833  144.4130  164.2263 C.ar    1  UNL1       -0.0002
     29 C         142.3484  145.3117  163.3932 C.ar    1  UNL1       -0.0000
     30 C         143.7875  144.9602  163.1580 C.ar    1  UNL1       -0.0000
     31 C         144.3616  143.7100  163.7558 C.ar    1  UNL1       -0.0000
     32 C         143.4965  142.8112  164.5888 C.ar    1  UNL1       -0.0002
     33 C         142.0574  143.1627  164.8241 C.ar    1  UNL1       -0.0018
     34 C         142.5398  141.8397  167.2395 C.3     1  UNL1        0.0491
     35 C         142.6034  141.4252  168.6797 C.3     1  UNL1        0.0750
     36 N         141.3376  141.1770  169.4454 N.3     1  UNL1       -0.2702
     37 C         141.1083  139.8497  170.1054 C.3     1  UNL1        0.0897
     38 C         140.3012  142.2562  169.5511 C.3     1  UNL1        0.0897
@<TRIPOS>BOND
     1    13    14    1
     2    14     2    1
     3     2     3   ar
     4     3     4   ar
     5     4     5   ar
     6     5     6   ar
     7     6     7   ar
     8     7     8    1
     9     7     9   ar
    10     9    10   ar
    11    10    11   ar
    12    11    12   ar
    13     1    12    1
    14     1    15    1
    15    15    16   ar
    16    16    17   ar
    17    17    18   ar
    18    18    19   ar
    19    19    20   ar
    20     1    21    1
    21    21    22    1
    22    21    34    1
    23    34    35    1
    24    35    36    1
    25    36    37    1
    26    36    38    1
    27    21    24    1
    28    24    25   ar
    29    25    26   ar
    30    26    27   ar
    31    27    28   ar
    32    28    29   ar
    33    29    30   ar
    34    30    31   ar
    35    31    32   ar
    36    32    33   ar
    37    12     2   ar
    38    20    15   ar
    39    33    24   ar
    40    10     4   ar
    41    33    28   ar
    42    22    23    1
@<TRIPOS>MOLECULE
*****
 38 42 0 0 0
SMALL
GASTEIGER

@<TRIPOS>ATOM
      1 C         140.6065  141.4035  166.2926 C.3     1  UNL1        0.0776
      2 C         139.9153  143.3108  164.6695 C.ar    1  UNL1        0.2211
      3 N         139.7673  143.8385  163.2732 N.ar    1  UNL1       -0.2119
      4 C         140.1625  142.9865  162.1036 C.ar    1  UNL1        0.0844
      5 C         140.0145  143.5142  160.7074 C.ar    1  UNL1        0.0197
      6 C         140.4097  142.6622  159.5378 C.ar    1  UNL1        0.0082
      7 C         140.9530  141.2826  159.7645 C.ar    1  UNL1        0.0347
      8 BR        141.3483  140.4306  158.5949 Br      1  UNL1       -0.0490
      9 C         141.1010  140.7549  161.1608 C.ar    1  UNL1        0.0082
     10 C         140.7058  141.6068  162.3303 C.ar    1  UNL1        0.0181
     11 C         140.8538  141.0792  163.7267 C.ar    1  UNL1        0.0023
     12 C         140.4585  141.9311  164.8962 C.ar    1  UNL1        0.0373
     13 C         138.3362  145.0779  165.7343 C.3     1  UNL1        0.2542
     14 O         139.5200  144.1628  165.8391 O.3     1  UNL1       -0.4563
     15 C         139.5890  140.4503  166.8459 C.ar    1  UNL1       -0.0157
     16 C         138.8037  139.5704  165.9191 C.ar    1  UNL1       -0.0039
     17 C         137.7862  138.6172  166.4724 C.ar    1  UNL1       -0.0003
     18 C         137.5541  138.5439  167.9525 C.ar    1  UNL1       -0.0000
     19 C         138.3395  139.4238  168.8794 C.ar    1  UNL1       -0.0003
     20 C         139.3569  140.3770  168.3261 C.ar    1  UNL1       -0.0039
     21 C         141.7720  141.8290  167.1356 C.3     1  UNL1        0.1158
     22 O         140.9042  142.8396  167.8252 O.3     1  UNL1       -0.3820
     23 H         140.5929  142.4764  168.6690 H       1  UNL1        0.2107
     24 C         142.6397  140.8184  166.4460 C.ar    1  UNL1        0.0024
     25 C         142.5564  139.3710  166.8308 C.ar    1  UNL1       -0.0020
     26 C         143.4241  138.3604  166.1412 C.ar    1  UNL1       -0.0002
     27 C         144.3754  138.7971  165.0667 C.ar    1  UNL1       -0.0000
     28 C         144.4588  140.2445  164.6819 C.ar    1  UNL1       -0.0002
     29 C         145.4100  140.6813  163.6075 C.ar    1  UNL1       -0.0000
     30 C         145.4934  142.1287  163.2226 C.ar    1  UNL1       -0.0000
     31 C         144.6256  143.1393  163.9122 C.ar    1  UNL1       -0.0000
     32 C         143.6744  142.7025  164.9867 C.ar    1  UNL1       -0.0002
     33 C         143.5910  141.2552  165.3715 C.ar    1  UNL1       -0.0018
     34 C         142.9374  142.2545  167.9785 C.3     1  UNL1        0.0491
     35 C         142.7344  142.5829  169.4280 C.3     1  UNL1        0.0750
     36 N         142.1748  141.5492  170.3600 N.3     1  UNL1       -0.2702
     37 C         142.8047  140.1901  170.4378 C.3     1  UNL1        0.0897
     38 C         140.9855  141.8747  171.2141 C.3     1  UNL1        0.0897
@<TRIPOS>BOND
     1    13    14    1
     2    14     2    1
     3     2     3   ar
     4     3     4   ar
     5     4     5   ar
     6     5     6   ar
     7     6     7   ar
     8     7     8    1
     9     7     9   ar
    10     9    10   ar
    11    10    11   ar
    12    11    12   ar
    13     1    12    1
    14     1    15    1
    15    15    16   ar
    16    16    17   ar
    17    17    18   ar
    18    18    19   ar
    19    19    20   ar
    20     1    21    1
    21    21    22    1
    22    21    34    1
    23    34    35    1
    24    35    36    1
    25    36    37    1
    26    36    38    1
    27    21    24    1
    28    24    25   ar
    29    25    26   ar
    30    26    27   ar
    31    27    28   ar
    32    28    29   ar
    33    29    30   ar
    34    30    31   ar
    35    31    32   ar
    36    32    33   ar
    37    12     2   ar
    38    20    15   ar
    39    33    24   ar
    40    10     4   ar
    41    33    28   ar
    42    22    23    1
@<TRIPOS>MOLECULE
*****
 38 42 0 0 0
SMALL
GASTEIGER

@<TRIPOS>ATOM
      1 C         140.9430  140.8718  165.3430 C.3     1  UNL1        0.0776
      2 C         138.7385  140.0311  164.2552 C.ar    1  UNL1        0.2211
      3 N         137.8984  139.7991  163.0345 N.ar    1  UNL1       -0.2119
      4 C         138.4227  140.1758  161.6805 C.ar    1  UNL1        0.0844
      5 C         137.5826  139.9438  160.4597 C.ar    1  UNL1        0.0197
      6 C         138.1070  140.3205  159.1058 C.ar    1  UNL1        0.0082
      7 C         139.4714  140.9293  158.9727 C.ar    1  UNL1        0.0347
      8 BR        139.9957  141.3060  157.6187 Br      1  UNL1       -0.0490
      9 C         140.3115  141.1613  160.1935 C.ar    1  UNL1        0.0082
     10 C         139.7872  140.7845  161.5474 C.ar    1  UNL1        0.0181
     11 C         140.6273  141.0165  162.7682 C.ar    1  UNL1        0.0023
     12 C         140.1029  140.6398  164.1221 C.ar    1  UNL1        0.0373
     13 C         138.2713  138.2264  166.0649 C.3     1  UNL1        0.2542
     14 O         138.2141  139.6543  165.6092 O.3     1  UNL1       -0.4563
     15 C         142.0904  139.9554  165.6491 C.ar    1  UNL1       -0.0157
     16 C         142.2058  139.3252  167.0054 C.ar    1  UNL1       -0.0039
     17 C         143.3531  138.4088  167.3115 C.ar    1  UNL1       -0.0003
     18 C         144.3851  138.1225  166.2613 C.ar    1  UNL1       -0.0000
     19 C         144.2698  138.7527  164.9049 C.ar    1  UNL1       -0.0003
     20 C         143.1224  139.6691  164.5988 C.ar    1  UNL1       -0.0039
     21 C         140.6357  142.0202  166.2577 C.3     1  UNL1        0.1158
     22 O         139.8656  141.0985  167.1562 O.3     1  UNL1       -0.3820
     23 H         140.4275  140.8265  167.8986 H       1  UNL1        0.2107
     24 C         141.4059  142.9419  165.3592 C.ar    1  UNL1        0.0024
     25 C         142.9038  142.9791  165.4292 C.ar    1  UNL1       -0.0020
     26 C         143.6739  143.9009  164.5308 C.ar    1  UNL1       -0.0002
     27 C         142.9462  144.7854  163.5623 C.ar    1  UNL1       -0.0000
     28 C         141.4483  144.7482  163.4923 C.ar    1  UNL1       -0.0002
     29 C         140.7206  145.6327  162.5238 C.ar    1  UNL1       -0.0000
     30 C         139.2226  145.5955  162.4538 C.ar    1  UNL1       -0.0000
     31 C         138.4525  144.6738  163.3523 C.ar    1  UNL1       -0.0000
     32 C         139.1802  143.7893  164.3207 C.ar    1  UNL1       -0.0002
     33 C         140.6781  143.8265  164.3908 C.ar    1  UNL1       -0.0018
     34 C         140.3285  143.1686  167.1724 C.3     1  UNL1        0.0491
     35 C         140.3363  142.9664  168.6587 C.3     1  UNL1        0.0750
     36 N         141.4416  142.1836  169.3034 N.3     1  UNL1       -0.2702
     37 C         141.1177  141.1054  170.2946 C.3     1  UNL1        0.0897
     38 C         142.8708  142.4791  168.9568 C.3     1  UNL1        0.0897
@<TRIPOS>BOND
     1    13    14    1
     2    14     2    1
     3     2     3   ar
     4     3     4   ar
     5     4     5   ar
     6     5     6   ar
     7     6     7   ar
     8     7     8    1
     9     7     9   ar
    10     9    10   ar
    11    10    11   ar
    12    11    12   ar
    13     1    12    1
    14     1    15    1
    15    15    16   ar
    16    16    17   ar
    17    17    18   ar
    18    18    19   ar
    19    19    20   ar
    20     1    21    1
    21    21    22    1
    22    21    34    1
    23    34    35    1
    24    35    36    1
    25    36    37    1
    26    36    38    1
    27    21    24    1
    28    24    25   ar
    29    25    26   ar
    30    26    27   ar
    31    27    28   ar
    32    28    29   ar
    33    29    30   ar
    34    30    31   ar
    35    31    32   ar
    36    32    33   ar
    37    12     2   ar
    38    20    15   ar
    39    33    24   ar
    40    10     4   ar
    41    33    28   ar
    42    22    23    1
@<TRIPOS>MOLECULE
*****
 38 42 0 0 0
SMALL
GASTEIGER

@<TRIPOS>ATOM
      1 C         141.5630  142.0363  164.1846 C.3     1  UNL1        0.0776
      2 C         143.5325  142.8525  162.6997 C.ar    1  UNL1        0.2211
      3 N         144.2551  142.8525  161.3852 N.ar    1  UNL1       -0.2119
      4 C         143.7308  142.0362  160.2411 C.ar    1  UNL1        0.0844
      5 C         144.4534  142.0362  158.9267 C.ar    1  UNL1        0.0197
      6 C         143.9292  141.2199  157.7827 C.ar    1  UNL1        0.0082
      7 C         142.6823  140.4036  157.9531 C.ar    1  UNL1        0.0347
      8 BR        142.1581  139.5873  156.8091 Br      1  UNL1       -0.0490
      9 C         141.9597  140.4036  159.2676 C.ar    1  UNL1        0.0082
     10 C         142.4840  141.2199  160.4116 C.ar    1  UNL1        0.0181
     11 C         141.7614  141.2200  161.7261 C.ar    1  UNL1        0.0023
     12 C         142.2856  142.0363  162.8701 C.ar    1  UNL1        0.0373
     13 C         143.7299  145.1300  163.9343 C.3     1  UNL1        0.2542
     14 O         144.0567  143.6689  163.8438 O.3     1  UNL1       -0.4563
     15 C         140.2196  142.6932  164.3019 C.ar    1  UNL1       -0.0157
     16 C         139.0268  142.0877  163.6233 C.ar    1  UNL1       -0.0039
     17 C         137.6834  142.7446  163.7407 C.ar    1  UNL1       -0.0003
     18 C         137.5328  144.0070  164.5366 C.ar    1  UNL1       -0.0000
     19 C         138.7256  144.6126  165.2152 C.ar    1  UNL1       -0.0003
     20 C         140.0690  143.9557  165.0979 C.ar    1  UNL1       -0.0039
     21 C         142.1838  141.3795  165.3818 C.3     1  UNL1        0.1158
     22 O         142.5845  142.7242  165.9118 O.3     1  UNL1       -0.3820
     23 H         141.9366  143.0181  166.5712 H       1  UNL1        0.2107
     24 C         141.7831  140.0347  164.8517 C.ar    1  UNL1        0.0024
     25 C         142.6460  139.3395  163.8407 C.ar    1  UNL1       -0.0020
     26 C         142.2453  137.9947  163.3107 C.ar    1  UNL1       -0.0002
     27 C         140.9817  137.3451  163.7916 C.ar    1  UNL1       -0.0000
     28 C         140.1188  138.0403  164.8025 C.ar    1  UNL1       -0.0002
     29 C         138.8551  137.3907  165.2834 C.ar    1  UNL1       -0.0000
     30 C         137.9922  138.0859  166.2945 C.ar    1  UNL1       -0.0000
     31 C         138.3929  139.4307  166.8245 C.ar    1  UNL1       -0.0000
     32 C         139.6565  140.0803  166.3436 C.ar    1  UNL1       -0.0002
     33 C         140.5194  139.3851  165.3326 C.ar    1  UNL1       -0.0018
     34 C         142.8046  140.7227  166.5789 C.3     1  UNL1        0.0491
     35 C         142.9124  141.4720  167.8738 C.3     1  UNL1        0.0750
     36 N         141.7581  141.4840  168.8317 N.3     1  UNL1       -0.2702
     37 C         140.9487  142.7335  169.0150 C.3     1  UNL1        0.0897
     38 C         141.4132  140.2467  169.6062 C.3     1  UNL1        0.0897
@<TRIPOS>BOND
     1    13    14    1
     2    14     2    1
     3     2     3   ar
     4     3     4   ar
     5     4     5   ar
     6     5     6   ar
     7     6     7   ar
     8     7     8    1
     9     7     9   ar
    10     9    10   ar
    11    10    11   ar
    12    11    12   ar
    13     1    12    1
    14     1    15    1
    15    15    16   ar
    16    16    17   ar
    17    17    18   ar
    18    18    19   ar
    19    19    20   ar
    20     1    21    1
    21    21    22    1
    22    21    34    1
    23    34    35    1
    24    35    36    1
    25    36    37    1
    26    36    38    1
    27    21    24    1
    28    24    25   ar
    29    25    26   ar
    30    26    27   ar
    31    27    28   ar
    32    28    29   ar
    33    29    30   ar
    34    30    31   ar
    35    31    32   ar
    36    32    33   ar
    37    12     2   ar
    38    20    15   ar
    39    33    24   ar
    40    10     4   ar
    41    33    28   ar
    42    22    23    1
@<TRIPOS>MOLECULE
*****
 38 42 0 0 0
SMALL
GASTEIGER

@<TRIPOS>ATOM
      1 C         140.7767  141.0995  164.0884 C.3     1  UNL1        0.0776
      2 C         139.5171  141.9161  161.9679 C.ar    1  UNL1        0.2211
      3 N         139.4644  142.1067  160.4810 N.ar    1  UNL1       -0.2119
      4 C         140.6186  141.6713  159.6276 C.ar    1  UNL1        0.0844
      5 C         140.5659  141.8618  158.1408 C.ar    1  UNL1        0.0197
      6 C         141.7201  141.4264  157.2875 C.ar    1  UNL1        0.0082
      7 C         142.9270  140.8004  157.9211 C.ar    1  UNL1        0.0347
      8 BR        144.0812  140.3649  157.0677 Br      1  UNL1       -0.0490
      9 C         142.9797  140.6098  159.4079 C.ar    1  UNL1        0.0082
     10 C         141.8255  141.0452  160.2612 C.ar    1  UNL1        0.0181
     11 C         141.8782  140.8547  161.7482 C.ar    1  UNL1        0.0023
     12 C         140.7240  141.2901  162.6015 C.ar    1  UNL1        0.0373
     13 C         137.8483  143.7574  162.7263 C.3     1  UNL1        0.2542
     14 O         138.3628  142.3516  162.8213 O.3     1  UNL1       -0.4563
     15 C         139.9470  140.0317  164.7375 C.ar    1  UNL1       -0.0157
     16 C         138.8756  140.4066  165.7181 C.ar    1  UNL1       -0.0039
     17 C         138.0460  139.3387  166.3672 C.ar    1  UNL1       -0.0003
     18 C         138.2878  137.8959  166.0357 C.ar    1  UNL1       -0.0000
     19 C         139.3592  137.5209  165.0551 C.ar    1  UNL1       -0.0003
     20 C         140.1888  138.5888  164.4060 C.ar    1  UNL1       -0.0039
     21 C         141.6589  141.9768  164.9262 C.3     1  UNL1        0.1158
     22 O         140.9826  143.1926  164.3654 O.3     1  UNL1       -0.3820
     23 H         140.3052  143.5014  164.9871 H       1  UNL1        0.2107
     24 C         142.3352  140.7611  165.4871 C.ar    1  UNL1        0.0024
     25 C         143.2080  139.9155  164.6076 C.ar    1  UNL1       -0.0020
     26 C         143.8842  138.6998  165.1685 C.ar    1  UNL1       -0.0002
     27 C         143.6879  138.3296  166.6088 C.ar    1  UNL1       -0.0000
     28 C         142.8152  139.1751  167.4882 C.ar    1  UNL1       -0.0002
     29 C         142.6188  138.8050  168.9285 C.ar    1  UNL1       -0.0000
     30 C         141.7460  139.6506  169.8079 C.ar    1  UNL1       -0.0000
     31 C         141.0698  140.8663  169.2470 C.ar    1  UNL1       -0.0000
     32 C         141.2661  141.2365  167.8068 C.ar    1  UNL1       -0.0002
     33 C         142.1388  140.3909  166.9273 C.ar    1  UNL1       -0.0018
     34 C         142.5412  142.8541  165.7640 C.3     1  UNL1        0.0491
     35 C         143.9036  143.2395  165.2686 C.3     1  UNL1        0.0750
     36 N         144.0789  143.7309  163.8622 N.3     1  UNL1       -0.2702
     37 C         143.6399  145.1166  163.4918 C.3     1  UNL1        0.0897
     38 C         144.6933  142.8368  162.8264 C.3     1  UNL1        0.0897
@<TRIPOS>BOND
     1    13    14    1
     2    14     2    1
     3     2     3   ar
     4     3     4   ar
     5     4     5   ar
     6     5     6   ar
     7     6     7   ar
     8     7     8    1
     9     7     9   ar
    10     9    10   ar
    11    10    11   ar
    12    11    12   ar
    13     1    12    1
    14     1    15    1
    15    15    16   ar
    16    16    17   ar
    17    17    18   ar
    18    18    19   ar
    19    19    20   ar
    20     1    21    1
    21    21    22    1
    22    21    34    1
    23    34    35    1
    24    35    36    1
    25    36    37    1
    26    36    38    1
    27    21    24    1
    28    24    25   ar
    29    25    26   ar
    30    26    27   ar
    31    27    28   ar
    32    28    29   ar
    33    29    30   ar
    34    30    31   ar
    35    31    32   ar
    36    32    33   ar
    37    12     2   ar
    38    20    15   ar
    39    33    24   ar
    40    10     4   ar
    41    33    28   ar
    42    22    23    1
@<TRIPOS>MOLECULE
*****
 38 42 0 0 0
SMALL
GASTEIGER

@<TRIPOS>ATOM
      1 C         141.8980  141.3255  162.1953 C.3     1  UNL1        0.0776
      2 C         143.3163  142.2687  164.1572 C.ar    1  UNL1        0.2211
      3 N         143.5223  142.4774  165.6282 N.ar    1  UNL1       -0.2119
      4 C         142.5160  141.9516  166.6086 C.ar    1  UNL1        0.0844
      5 C         142.7220  142.1603  168.0796 C.ar    1  UNL1        0.0197
      6 C         141.7158  141.6346  169.0598 C.ar    1  UNL1        0.0082
      7 C         140.5035  140.9001  168.5690 C.ar    1  UNL1        0.0347
      8 BR        139.4971  140.3743  169.5494 Br      1  UNL1       -0.0490
      9 C         140.2974  140.6914  167.0980 C.ar    1  UNL1        0.0082
     10 C         141.3037  141.2171  166.1178 C.ar    1  UNL1        0.0181
     11 C         141.0977  141.0084  164.6467 C.ar    1  UNL1        0.0023
     12 C         142.1040  141.5342  163.6664 C.ar    1  UNL1        0.0373
     13 C         145.5334  141.9780  162.8342 C.3     1  UNL1        0.2542
     14 O         144.3226  142.7945  163.1769 O.3     1  UNL1       -0.4563
     15 C         142.3143  140.0343  161.5555 C.ar    1  UNL1       -0.0157
     16 C         143.2176  139.0896  162.2914 C.ar    1  UNL1       -0.0039
     17 C         143.6338  137.7983  161.6515 C.ar    1  UNL1       -0.0003
     18 C         143.1467  137.4517  160.2759 C.ar    1  UNL1       -0.0000
     19 C         142.2434  138.3964  159.5399 C.ar    1  UNL1       -0.0003
     20 C         141.8271  139.6877  160.1797 C.ar    1  UNL1       -0.0039
     21 C         141.2759  142.4081  161.3641 C.3     1  UNL1        0.1158
     22 O         142.6154  142.7173  160.7642 O.3     1  UNL1       -0.3820
     23 H         142.6926  142.2792  159.9023 H       1  UNL1        0.2107
     24 C         139.9363  142.0988  161.9640 C.ar    1  UNL1        0.0024
     25 C         139.1587  140.9073  161.4888 C.ar    1  UNL1       -0.0020
     26 C         137.8192  140.5980  162.0887 C.ar    1  UNL1       -0.0002
     27 C         137.2572  141.4802  163.1639 C.ar    1  UNL1       -0.0000
     28 C         138.0347  142.6717  163.6391 C.ar    1  UNL1       -0.0002
     29 C         137.4727  143.5538  164.7142 C.ar    1  UNL1       -0.0000
     30 C         138.2503  144.7453  165.1894 C.ar    1  UNL1       -0.0000
     31 C         139.5898  145.0546  164.5895 C.ar    1  UNL1       -0.0000
     32 C         140.1518  144.1724  163.5144 C.ar    1  UNL1       -0.0002
     33 C         139.3743  142.9810  163.0392 C.ar    1  UNL1       -0.0018
     34 C         140.6537  143.4906  160.5329 C.3     1  UNL1        0.0491
     35 C         141.5034  144.6006  159.9891 C.3     1  UNL1        0.0750
     36 N         141.5248  144.8754  158.5146 N.3     1  UNL1       -0.2702
     37 C         142.5573  144.2217  157.6448 C.3     1  UNL1        0.0897
     38 C         140.5136  145.8037  157.9099 C.3     1  UNL1        0.0897
@<TRIPOS>BOND
     1    13    14    1
     2    14     2    1
     3     2     3   ar
     4     3     4   ar
     5     4     5   ar
     6     5     6   ar
     7     6     7   ar
     8     7     8    1
     9     7     9   ar
    10     9    10   ar
    11    10    11   ar
    12    11    12   ar
    13     1    12    1
    14     1    15    1
    15    15    16   ar
    16    16    17   ar
    17    17    18   ar
    18    18    19   ar
    19    19    20   ar
    20     1    21    1
    21    21    22    1
    22    21    34    1
    23    34    35    1
    24    35    36    1
    25    36    37    1
    26    36    38    1
    27    21    24    1
    28    24    25   ar
    29    25    26   ar
    30    26    27   ar
    31    27    28   ar
    32    28    29   ar
    33    29    30   ar
    34    30    31   ar
    35    31    32   ar
    36    32    33   ar
    37    12     2   ar
    38    20    15   ar
    39    33    24   ar
    40    10     4   ar
    41    33    28   ar
    42    22    23    1
@<TRIPOS>MOLECULE
*****
 38 42 0 0 0
SMALL
GASTEIGER

@<TRIPOS>ATOM
      1 C         141.6433  142.3079  162.5622 C.3     1  UNL1        0.0776
      2 C         143.3570  142.3383  164.5147 C.ar    1  UNL1        0.2211
      3 N         143.6685  142.1716  165.9725 N.ar    1  UNL1       -0.2119
      4 C         142.5776  141.8076  166.9357 C.ar    1  UNL1        0.0844
      5 C         142.8891  141.6409  168.3934 C.ar    1  UNL1        0.0197
      6 C         141.7983  141.2770  169.3566 C.ar    1  UNL1        0.0082
      7 C         140.3960  141.0798  168.8619 C.ar    1  UNL1        0.0347
      8 BR        139.3051  140.7159  169.8251 Br      1  UNL1       -0.0490
      9 C         140.0845  141.2466  167.4041 C.ar    1  UNL1        0.0082
     10 C         141.1753  141.6105  166.4410 C.ar    1  UNL1        0.0181
     11 C         140.8639  141.7772  164.9832 C.ar    1  UNL1        0.0023
     12 C         141.9547  142.1411  164.0201 C.ar    1  UNL1        0.0373
     13 C         145.7133  141.8977  163.5127 C.3     1  UNL1        0.2542
     14 O         144.4479  142.7022  163.5515 O.3     1  UNL1       -0.4563
     15 C         141.0485  143.5918  162.0644 C.ar    1  UNL1       -0.0157
     16 C         140.1485  144.3963  162.9548 C.ar    1  UNL1       -0.0039
     17 C         139.5537  145.6802  162.4571 C.ar    1  UNL1       -0.0003
     18 C         139.8589  146.1597  161.0689 C.ar    1  UNL1       -0.0000
     19 C         140.7589  145.3552  160.1785 C.ar    1  UNL1       -0.0003
     20 C         141.3537  144.0713  160.6762 C.ar    1  UNL1       -0.0039
     21 C         141.9267  141.1908  161.6022 C.3     1  UNL1        0.1158
     22 O         143.2622  141.7980  161.2898 O.3     1  UNL1       -0.3820
     23 H         143.9495  141.3522  161.8092 H       1  UNL1        0.2107
     24 C         140.5911  140.5836  161.9145 C.ar    1  UNL1        0.0024
     25 C         139.3454  141.1591  161.3088 C.ar    1  UNL1       -0.0020
     26 C         138.0099  140.5519  161.6211 C.ar    1  UNL1       -0.0002
     27 C         137.9200  139.3692  162.5393 C.ar    1  UNL1       -0.0000
     28 C         139.1656  138.7936  163.1450 C.ar    1  UNL1       -0.0002
     29 C         139.0758  137.6108  164.0632 C.ar    1  UNL1       -0.0000
     30 C         140.3215  137.0353  164.6689 C.ar    1  UNL1       -0.0000
     31 C         141.6571  137.6425  164.3566 C.ar    1  UNL1       -0.0000
     32 C         141.7469  138.8252  163.4384 C.ar    1  UNL1       -0.0002
     33 C         140.5013  139.4008  162.8327 C.ar    1  UNL1       -0.0018
     34 C         142.2100  140.0737  160.6422 C.3     1  UNL1        0.0491
     35 C         143.0135  140.3355  159.4028 C.3     1  UNL1        0.0750
     36 N         142.5315  141.3354  158.3938 N.3     1  UNL1       -0.2702
     37 C         141.0852  141.3629  157.9970 C.3     1  UNL1        0.0897
     38 C         143.4958  142.3077  157.7818 C.3     1  UNL1        0.0897
@<TRIPOS>BOND
     1    13    14    1
     2    14     2    1
     3     2     3   ar
     4     3     4   ar
     5     4     5   ar
     6     5     6   ar
     7     6     7   ar
     8     7     8    1
     9     7     9   ar
    10     9    10   ar
    11    10    11   ar
    12    11    12   ar
    13     1    12    1
    14     1    15    1
    15    15    16   ar
    16    16    17   ar
    17    17    18   ar
    18    18    19   ar
    19    19    20   ar
    20     1    21    1
    21    21    22    1
    22    21    34    1
    23    34    35    1
    24    35    36    1
    25    36    37    1
    26    36    38    1
    27    21    24    1
    28    24    25   ar
    29    25    26   ar
    30    26    27   ar
    31    27    28   ar
    32    28    29   ar
    33    29    30   ar
    34    30    31   ar
    35    31    32   ar
    36    32    33   ar
    37    12     2   ar
    38    20    15   ar
    39    33    24   ar
    40    10     4   ar
    41    33    28   ar
    42    22    23    1
@<TRIPOS>MOLECULE
*****
 38 42 0 0 0
SMALL
GASTEIGER

@<TRIPOS>ATOM
      1 C         141.1959  140.4020  165.1551 C.3     1  UNL1        0.0776
      2 C         139.1177  139.2117  164.1478 C.ar    1  UNL1        0.2211
      3 N         138.1736  138.9935  163.0028 N.ar    1  UNL1       -0.2119
      4 C         138.3635  139.7475  161.7200 C.ar    1  UNL1        0.0844
      5 C         137.4194  139.5293  160.5750 C.ar    1  UNL1        0.0197
      6 C         137.6093  140.2832  159.2923 C.ar    1  UNL1        0.0082
      7 C         138.7434  141.2553  159.1545 C.ar    1  UNL1        0.0347
      8 BR        138.9333  142.0092  157.8717 Br      1  UNL1       -0.0490
      9 C         139.6875  141.4735  160.2995 C.ar    1  UNL1        0.0082
     10 C         139.4975  140.7196  161.5822 C.ar    1  UNL1        0.0181
     11 C         140.4417  140.9377  162.7273 C.ar    1  UNL1        0.0023
     12 C         140.2517  140.1838  164.0101 C.ar    1  UNL1        0.0373
     13 C         137.8772  138.8939  166.4084 C.3     1  UNL1        0.2542
     14 O         138.9278  138.4578  165.4307 O.3     1  UNL1       -0.4563
     15 C         142.5884  139.8477  165.0950 C.ar    1  UNL1       -0.0157
     16 C         143.0548  138.8766  166.1388 C.ar    1  UNL1       -0.0039
     17 C         144.4473  138.3223  166.0787 C.ar    1  UNL1       -0.0003
     18 C         145.3735  138.7391  164.9749 C.ar    1  UNL1       -0.0000
     19 C         144.9071  139.7103  163.9311 C.ar    1  UNL1       -0.0003
     20 C         143.5146  140.2646  163.9911 C.ar    1  UNL1       -0.0039
     21 C         140.7474  141.1744  166.3602 C.3     1  UNL1        0.1158
     22 O         141.0167  139.9796  167.2262 O.3     1  UNL1       -0.3820
     23 H         141.8846  140.0756  167.6487 H       1  UNL1        0.2107
     24 C         140.4781  142.3691  165.4942 C.ar    1  UNL1        0.0024
     25 C         139.0756  142.6836  165.0651 C.ar    1  UNL1       -0.0020
     26 C         138.8063  143.8784  164.1991 C.ar    1  UNL1       -0.0002
     27 C         139.9394  144.7587  163.7621 C.ar    1  UNL1       -0.0000
     28 C         141.3419  144.4442  164.1912 C.ar    1  UNL1       -0.0002
     29 C         142.4751  145.3245  163.7542 C.ar    1  UNL1       -0.0000
     30 C         143.8777  145.0101  164.1832 C.ar    1  UNL1       -0.0000
     31 C         144.1470  143.8153  165.0492 C.ar    1  UNL1       -0.0000
     32 C         143.0138  142.9350  165.4862 C.ar    1  UNL1       -0.0002
     33 C         141.6113  143.2494  165.0572 C.ar    1  UNL1       -0.0018
     34 C         140.2990  141.9468  167.5653 C.3     1  UNL1        0.0491
     35 C         141.0849  141.8698  168.8406 C.3     1  UNL1        0.0750
     36 N         140.5168  141.1530  170.0295 N.3     1  UNL1       -0.2702
     37 C         139.1127  140.6269  169.9877 C.3     1  UNL1        0.0897
     38 C         141.3528  140.9622  171.2602 C.3     1  UNL1        0.0897
@<TRIPOS>BOND
     1    13    14    1
     2    14     2    1
     3     2     3   ar
     4     3     4   ar
     5     4     5   ar
     6     5     6   ar
     7     6     7   ar
     8     7     8    1
     9     7     9   ar
    10     9    10   ar
    11    10    11   ar
    12    11    12   ar
    13     1    12    1
    14     1    15    1
    15    15    16   ar
    16    16    17   ar
    17    17    18   ar
    18    18    19   ar
    19    19    20   ar
    20     1    21    1
    21    21    22    1
    22    21    34    1
    23    34    35    1
    24    35    36    1
    25    36    37    1
    26    36    38    1
    27    21    24    1
    28    24    25   ar
    29    25    26   ar
    30    26    27   ar
    31    27    28   ar
    32    28    29   ar
    33    29    30   ar
    34    30    31   ar
    35    31    32   ar
    36    32    33   ar
    37    12     2   ar
    38    20    15   ar
    39    33    24   ar
    40    10     4   ar
    41    33    28   ar
    42    22    23    1
@<TRIPOS>MOLECULE
*****
 38 42 0 0 0
SMALL
GASTEIGER

@<TRIPOS>ATOM
      1 C         140.1360  140.0807  164.3675 C.3     1  UNL1        0.0776
      2 C         139.1005  139.4593  166.6679 C.ar    1  UNL1        0.2211
      3 N         139.0527  139.6239  168.1580 N.ar    1  UNL1       -0.2119
      4 C         139.9927  140.5748  168.8381 C.ar    1  UNL1        0.0844
      5 C         139.9450  140.7394  170.3282 C.ar    1  UNL1        0.0197
      6 C         140.8849  141.6902  171.0082 C.ar    1  UNL1        0.0082
      7 C         141.8727  142.4763  170.1981 C.ar    1  UNL1        0.0347
      8 BR        142.8127  143.4271  170.8781 Br      1  UNL1       -0.0490
      9 C         141.9204  142.3117  168.7079 C.ar    1  UNL1        0.0082
     10 C         140.9805  141.3609  168.0280 C.ar    1  UNL1        0.0181
     11 C         141.0282  141.1962  166.5377 C.ar    1  UNL1        0.0023
     12 C         140.0882  140.2454  165.8577 C.ar    1  UNL1        0.0373
     13 C         137.5061  137.4106  166.7730 C.3     1  UNL1        0.2542
     14 O         138.1605  138.5085  165.9878 O.3     1  UNL1       -0.4563
     15 C         141.3483  139.4826  163.7175 C.ar    1  UNL1       -0.0157
     16 C         142.7181  139.8366  164.2159 C.ar    1  UNL1       -0.0039
     17 C         143.9305  139.2385  163.5659 C.ar    1  UNL1       -0.0003
     18 C         143.7730  138.2864  162.4176 C.ar    1  UNL1       -0.0000
     19 C         142.4032  137.9324  161.9192 C.ar    1  UNL1       -0.0003
     20 C         141.1909  138.5305  162.5692 C.ar    1  UNL1       -0.0039
     21 C         138.9714  140.5141  163.5274 C.3     1  UNL1        0.1158
     22 O         138.6339  139.0783  163.2546 O.3     1  UNL1       -0.3820
     23 H         137.9277  138.7925  163.8550 H       1  UNL1        0.2107
     24 C         139.3090  141.9499  163.8002 C.ar    1  UNL1        0.0024
     25 C         138.5725  142.7038  164.8676 C.ar    1  UNL1       -0.0020
     26 C         138.9100  144.1396  165.1404 C.ar    1  UNL1       -0.0002
     27 C         139.9840  144.8216  164.3459 C.ar    1  UNL1       -0.0000
     28 C         140.7205  144.0679  163.2785 C.ar    1  UNL1       -0.0002
     29 C         141.7945  144.7499  162.4839 C.ar    1  UNL1       -0.0000
     30 C         142.5310  143.9960  161.4165 C.ar    1  UNL1       -0.0000
     31 C         142.1935  142.5602  161.1437 C.ar    1  UNL1       -0.0000
     32 C         141.1195  141.8782  161.9383 C.ar    1  UNL1       -0.0002
     33 C         140.3830  142.6320  163.0056 C.ar    1  UNL1       -0.0018
     34 C         137.8069  140.9475  162.6872 C.3     1  UNL1        0.0491
     35 C         137.5673  140.3093  161.3511 C.3     1  UNL1        0.0750
     36 N         138.1054  140.9505  160.1063 N.3     1  UNL1       -0.2702
     37 C         138.4566  140.1044  158.9185 C.3     1  UNL1        0.0897
     38 C         138.2925  142.4377  160.0494 C.3     1  UNL1        0.0897
@<TRIPOS>BOND
     1    13    14    1
     2    14     2    1
     3     2     3   ar
     4     3     4   ar
     5     4     5   ar
     6     5     6   ar
     7     6     7   ar
     8     7     8    1
     9     7     9   ar
    10     9    10   ar
    11    10    11   ar
    12    11    12   ar
    13     1    12    1
    14     1    15    1
    15    15    16   ar
    16    16    17   ar
    17    17    18   ar
    18    18    19   ar
    19    19    20   ar
    20     1    21    1
    21    21    22    1
    22    21    34    1
    23    34    35    1
    24    35    36    1
    25    36    37    1
    26    36    38    1
    27    21    24    1
    28    24    25   ar
    29    25    26   ar
    30    26    27   ar
    31    27    28   ar
    32    28    29   ar
    33    29    30   ar
    34    30    31   ar
    35    31    32   ar
    36    32    33   ar
    37    12     2   ar
    38    20    15   ar
    39    33    24   ar
    40    10     4   ar
    41    33    28   ar
    42    22    23    1
