@<TRIPOS>MOLECULE
*****
 36 40 0 0 0
SMALL
GASTEIGER

@<TRIPOS>ATOM
      1 C         138.7354  139.4729  163.8552 C.ar    1  UNL1        0.0324
      2 C         139.3151  138.2796  163.1553 C.ar    1  UNL1        0.1015
      3 N         139.2540  138.1844  161.6596 N.ar    1  UNL1       -0.2290
      4 C         138.6132  139.2826  160.8637 C.ar    1  UNL1        0.1345
      5 C         138.0335  140.4759  161.5636 C.ar    1  UNL1        0.0487
      6 C         138.0946  140.5711  163.0594 C.ar    1  UNL1        0.0490
      7 C         140.9698  141.6033  171.0727 C.3     1  UNL1        0.1538
      8 N         140.3494  141.0335  169.8315 N.ar    1  UNL1       -0.2474
      9 C         140.7552  141.3431  168.4210 C.ar    1  UNL1        0.0966
     10 C         139.8709  140.5550  167.5007 C.ar    1  UNL1        0.0381
     11 C         139.8099  140.4599  166.0050 C.ar    1  UNL1        0.0032
     12 C         138.7965  139.5681  165.3510 C.ar    1  UNL1        0.0028
     13 C         137.8442  138.7714  166.1927 C.ar    1  UNL1        0.0017
     14 C         137.9053  138.8666  167.6884 C.ar    1  UNL1        0.0209
     15 C         138.9186  139.7583  168.3424 C.ar    1  UNL1        0.1024
     16 N         139.2144  140.0541  169.7829 N.ar    1  UNL1       -0.1692
     17 N         138.5521  139.1874  159.3680 N.pl3   1  UNL1       -0.2821
     18 H         137.7113  139.3863  158.8960 H       1  UNL1        0.1551
     19 C         139.7720  138.7891  158.5914 C.ar    1  UNL1        0.1527
     20 C         141.1005  139.4070  158.9127 C.ar    1  UNL1        0.1340
     21 N         142.3204  139.0087  158.1360 N.ar    1  UNL1       -0.2290
     22 C         142.2119  137.9925  157.0381 C.ar    1  UNL1        0.1683
     23 C         140.8834  137.3746  156.7168 C.ar    1  UNL1        0.1299
     24 N         139.6635  137.7729  157.4935 N.ar    1  UNL1       -0.2251
     25 C         143.4318  137.5942  156.2615 C.1     1  UNL1        0.1214
     26 N         144.6517  137.1959  155.4849 N.1     1  UNL1       -0.1892
     27 N         137.5148  141.7644  163.7593 N.pl3   1  UNL1       -0.3306
     28 H         137.0248  141.6490  164.6053 H       1  UNL1        0.1469
     29 C         137.6818  143.1338  163.1701 C.3     1  UNL1        0.1184
     30 C         138.9900  143.8548  163.3071 C.3     1  UNL1        0.1503
     31 C         139.1646  145.2141  162.6973 C.3     1  UNL1        0.1003
     32 N         140.4728  145.9351  162.8343 N.3     1  UNL1       -0.2933
     33 C         141.6064  145.2968  163.5811 C.3     1  UNL1        0.1011
     34 C         141.4317  143.9375  164.1909 C.3     1  UNL1        0.1592
     35 O         140.1235  143.2165  164.0539 O.3     1  UNL1       -0.3516
     36 H         140.2739  146.8199  163.3010 H       1  UNL1        0.1234
@<TRIPOS>BOND
     1     7     8    1
     2     8     9   ar
     3     9    10   ar
     4    10    11   ar
     5    11    12   ar
     6    12     1    1
     7     1     2   ar
     8     2     3   ar
     9     3     4   ar
    10     4    17    1
    11    17    19    1
    12    19    20   ar
    13    20    21   ar
    14    21    22   ar
    15    22    25    1
    16    25    26    3
    17    22    23   ar
    18    23    24   ar
    19     4     5   ar
    20     5     6   ar
    21     6    27    1
    22    27    29    1
    23    30    29    1
    24    30    31    1
    25    31    32    1
    26    32    33    1
    27    33    34    1
    28    34    35    1
    29    12    13   ar
    30    13    14   ar
    31    14    15   ar
    32    15    16   ar
    33    16     8   ar
    34    15    10   ar
    35     6     1   ar
    36    35    30    1
    37    24    19   ar
    38    17    18    1
    39    27    28    1
    40    32    36    1
@<TRIPOS>MOLECULE
*****
 36 40 0 0 0
SMALL
GASTEIGER

@<TRIPOS>ATOM
      1 C         138.9676  139.4007  163.6334 C.ar    1  UNL1        0.0324
      2 C         139.6931  138.2823  162.9458 C.ar    1  UNL1        0.1015
      3 N         139.6466  138.1652  161.4511 N.ar    1  UNL1       -0.2290
      4 C         138.8745  139.1665  160.6440 C.ar    1  UNL1        0.1345
      5 C         138.1490  140.2849  161.3316 C.ar    1  UNL1        0.0487
      6 C         138.1956  140.4020  162.8264 C.ar    1  UNL1        0.0490
      7 C         141.3266  141.3795  170.8544 C.3     1  UNL1        0.1538
      8 N         140.6611  140.8671  169.6116 N.ar    1  UNL1       -0.2474
      9 C         141.1271  141.0945  168.2041 C.ar    1  UNL1        0.0966
     10 C         140.1668  140.4052  167.2807 C.ar    1  UNL1        0.0381
     11 C         140.1203  140.2882  165.7860 C.ar    1  UNL1        0.0032
     12 C         139.0141  139.5177  165.1282 C.ar    1  UNL1        0.0028
     13 C         137.9545  138.8643  165.9650 C.ar    1  UNL1        0.0017
     14 C         138.0011  138.9813  167.4596 C.ar    1  UNL1        0.0209
     15 C         139.1072  139.7518  168.1175 C.ar    1  UNL1        0.1024
     16 N         139.4127  140.0372  169.5581 N.ar    1  UNL1       -0.1692
     17 N         138.8280  139.0494  159.1493 N.pl3   1  UNL1       -0.2821
     18 H         138.9997  138.1813  158.7180 H       1  UNL1        0.1551
     19 C         138.5197  140.2550  158.3118 C.ar    1  UNL1        0.1527
     20 C         139.5405  141.3436  158.1598 C.ar    1  UNL1        0.1340
     21 N         139.2322  142.5492  157.3222 N.ar    1  UNL1       -0.2290
     22 C         137.9032  142.6663  156.6367 C.ar    1  UNL1        0.1683
     23 C         136.8825  141.5778  156.7887 C.ar    1  UNL1        0.1299
     24 N         137.1907  140.3722  157.6263 N.ar    1  UNL1       -0.2251
     25 C         137.5950  143.8719  155.7992 C.1     1  UNL1        0.1214
     26 N         137.2867  145.0775  154.9617 N.1     1  UNL1       -0.1892
     27 N         137.4701  141.5204  163.5140 N.pl3   1  UNL1       -0.3306
     28 H         136.9091  141.3328  164.3010 H       1  UNL1        0.1469
     29 C         137.5993  142.9246  163.0026 C.3     1  UNL1        0.1184
     30 C         138.8770  143.6831  163.2084 C.3     1  UNL1        0.1503
     31 C         139.0317  145.0610  162.6363 C.3     1  UNL1        0.1003
     32 N         140.3093  145.8195  162.8421 N.3     1  UNL1       -0.2933
     33 C         141.4322  145.2001  163.6201 C.3     1  UNL1        0.1011
     34 C         141.2775  143.8221  164.1923 C.3     1  UNL1        0.1592
     35 O         139.9999  143.0636  163.9865 O.3     1  UNL1       -0.3516
     36 H         140.0633  146.6865  163.3197 H       1  UNL1        0.1234
@<TRIPOS>BOND
     1     7     8    1
     2     8     9   ar
     3     9    10   ar
     4    10    11   ar
     5    11    12   ar
     6    12     1    1
     7     1     2   ar
     8     2     3   ar
     9     3     4   ar
    10     4    17    1
    11    17    19    1
    12    19    20   ar
    13    20    21   ar
    14    21    22   ar
    15    22    25    1
    16    25    26    3
    17    22    23   ar
    18    23    24   ar
    19     4     5   ar
    20     5     6   ar
    21     6    27    1
    22    27    29    1
    23    30    29    1
    24    30    31    1
    25    31    32    1
    26    32    33    1
    27    33    34    1
    28    34    35    1
    29    12    13   ar
    30    13    14   ar
    31    14    15   ar
    32    15    16   ar
    33    16     8   ar
    34    15    10   ar
    35     6     1   ar
    36    35    30    1
    37    24    19   ar
    38    17    18    1
    39    27    28    1
    40    32    36    1
@<TRIPOS>MOLECULE
*****
 36 40 0 0 0
SMALL
GASTEIGER

@<TRIPOS>ATOM
      1 C         138.4615  139.9236  163.7794 C.ar    1  UNL1        0.0324
      2 C         137.6601  141.0497  163.1966 C.ar    1  UNL1        0.1015
      3 N         137.3698  141.0807  161.7253 N.ar    1  UNL1       -0.2290
      4 C         137.8809  139.9855  160.8368 C.ar    1  UNL1        0.1345
      5 C         138.6823  138.8594  161.4196 C.ar    1  UNL1        0.0487
      6 C         138.9726  138.8285  162.8910 C.ar    1  UNL1        0.0490
      7 C         141.8440  141.3865  170.7107 C.3     1  UNL1        0.1538
      8 N         141.0210  140.9387  169.5393 N.ar    1  UNL1       -0.2474
      9 C         141.2208  141.3530  168.1115 C.ar    1  UNL1        0.0966
     10 C         140.1771  140.6683  167.2797 C.ar    1  UNL1        0.0381
     11 C         139.8869  140.6993  165.8084 C.ar    1  UNL1        0.0032
     12 C         138.7518  139.8927  165.2508 C.ar    1  UNL1        0.0028
     13 C         137.9069  139.0553  166.1645 C.ar    1  UNL1        0.0017
     14 C         138.1971  139.0243  167.6358 C.ar    1  UNL1        0.0209
     15 C         139.3322  139.8309  168.1934 C.ar    1  UNL1        0.1024
     16 N         139.8538  139.9980  169.5899 N.ar    1  UNL1       -0.1692
     17 N         137.5907  140.0164  159.3655 N.pl3   1  UNL1       -0.2821
     18 H         137.0996  139.2740  158.9449 H       1  UNL1        0.1551
     19 C         138.0486  141.1785  158.5350 C.ar    1  UNL1        0.1527
     20 C         139.2790  141.9418  158.9267 C.ar    1  UNL1        0.1340
     21 N         139.7369  143.1039  158.0962 N.ar    1  UNL1       -0.2290
     22 C         138.9644  143.5028  156.8739 C.ar    1  UNL1        0.1683
     23 C         137.7340  142.7395  156.4821 C.ar    1  UNL1        0.1299
     24 N         137.2761  141.5774  157.3126 N.ar    1  UNL1       -0.2251
     25 C         139.4224  144.6649  156.0433 C.1     1  UNL1        0.1214
     26 N         139.8803  145.8270  155.2128 N.1     1  UNL1       -0.1892
     27 N         139.7740  137.7024  163.4738 N.pl3   1  UNL1       -0.3306
     28 H         139.4153  137.1822  164.2288 H       1  UNL1        0.1469
     29 C         141.1220  137.3690  162.9064 C.3     1  UNL1        0.1184
     30 C         142.3426  138.0864  163.4018 C.3     1  UNL1        0.1503
     31 C         143.4345  138.4587  162.4431 C.3     1  UNL1        0.1003
     32 N         144.6551  139.1762  162.9385 N.3     1  UNL1       -0.2933
     33 C         144.7838  139.5213  164.3926 C.3     1  UNL1        0.1011
     34 C         143.6918  139.1490  165.3513 C.3     1  UNL1        0.1592
     35 O         142.4712  138.4315  164.8559 O.3     1  UNL1       -0.3516
     36 H         144.7109  140.0537  162.4216 H       1  UNL1        0.1234
@<TRIPOS>BOND
     1     7     8    1
     2     8     9   ar
     3     9    10   ar
     4    10    11   ar
     5    11    12   ar
     6    12     1    1
     7     1     2   ar
     8     2     3   ar
     9     3     4   ar
    10     4    17    1
    11    17    19    1
    12    19    20   ar
    13    20    21   ar
    14    21    22   ar
    15    22    25    1
    16    25    26    3
    17    22    23   ar
    18    23    24   ar
    19     4     5   ar
    20     5     6   ar
    21     6    27    1
    22    27    29    1
    23    30    29    1
    24    30    31    1
    25    31    32    1
    26    32    33    1
    27    33    34    1
    28    34    35    1
    29    12    13   ar
    30    13    14   ar
    31    14    15   ar
    32    15    16   ar
    33    16     8   ar
    34    15    10   ar
    35     6     1   ar
    36    35    30    1
    37    24    19   ar
    38    17    18    1
    39    27    28    1
    40    32    36    1
@<TRIPOS>MOLECULE
*****
 36 40 0 0 0
SMALL
GASTEIGER

@<TRIPOS>ATOM
      1 C         138.7525  139.5358  163.7821 C.ar    1  UNL1        0.0324
      2 C         137.9499  140.5357  163.0036 C.ar    1  UNL1        0.1015
      3 N         137.9002  140.4555  161.5066 N.ar    1  UNL1       -0.2290
      4 C         138.6531  139.3753  160.7880 C.ar    1  UNL1        0.1345
      5 C         139.4557  138.3754  161.5664 C.ar    1  UNL1        0.0487
      6 C         139.5054  138.4557  163.0635 C.ar    1  UNL1        0.0490
      7 C         140.8070  141.7292  171.0341 C.3     1  UNL1        0.1538
      8 N         140.2328  141.1321  169.7835 N.ar    1  UNL1       -0.2474
      9 C         140.6195  141.4879  168.3786 C.ar    1  UNL1        0.0966
     10 C         139.7968  140.6502  167.4451 C.ar    1  UNL1        0.0381
     11 C         139.7471  140.5699  165.9481 C.ar    1  UNL1        0.0032
     12 C         138.8022  139.6161  165.2791 C.ar    1  UNL1        0.0028
     13 C         137.9071  138.7426  166.1072 C.ar    1  UNL1        0.0017
     14 C         137.9567  138.8229  167.6042 C.ar    1  UNL1        0.0209
     15 C         138.9016  139.7767  168.2731 C.ar    1  UNL1        0.1024
     16 N         139.1711  140.0746  169.7183 N.ar    1  UNL1       -0.1692
     17 N         138.6034  139.2950  159.2910 N.pl3   1  UNL1       -0.2821
     18 H         137.7784  139.5387  158.8121 H       1  UNL1        0.1551
     19 C         139.8105  138.8434  158.5236 C.ar    1  UNL1        0.1527
     20 C         141.1408  139.4916  158.7688 C.ar    1  UNL1        0.1340
     21 N         142.3479  139.0400  158.0014 N.ar    1  UNL1       -0.2290
     22 C         142.2248  137.9403  156.9888 C.ar    1  UNL1        0.1683
     23 C         140.8945  137.2921  156.7436 C.ar    1  UNL1        0.1299
     24 N         139.6873  137.7437  157.5110 N.ar    1  UNL1       -0.2251
     25 C         143.4319  137.4887  156.2214 C.1     1  UNL1        0.1214
     26 N         144.6390  137.0371  155.4540 N.1     1  UNL1       -0.1892
     27 N         140.3081  137.4558  163.8420 N.pl3   1  UNL1       -0.3306
     28 H         139.9365  136.5631  164.0270 H       1  UNL1        0.1469
     29 C         141.6769  137.8161  164.3385 C.3     1  UNL1        0.1184
     30 C         142.5685  138.6930  163.5102 C.3     1  UNL1        0.1503
     31 C         143.2967  138.1209  162.3302 C.3     1  UNL1        0.1003
     32 N         144.1883  138.9978  161.5019 N.3     1  UNL1       -0.2933
     33 C         144.3516  140.4468  161.8535 C.3     1  UNL1        0.1011
     34 C         143.6234  141.0189  163.0335 C.3     1  UNL1        0.1592
     35 O         142.7318  140.1420  163.8618 O.3     1  UNL1       -0.3516
     36 H         143.8293  138.9650  160.5477 H       1  UNL1        0.1234
@<TRIPOS>BOND
     1     7     8    1
     2     8     9   ar
     3     9    10   ar
     4    10    11   ar
     5    11    12   ar
     6    12     1    1
     7     1     2   ar
     8     2     3   ar
     9     3     4   ar
    10     4    17    1
    11    17    19    1
    12    19    20   ar
    13    20    21   ar
    14    21    22   ar
    15    22    25    1
    16    25    26    3
    17    22    23   ar
    18    23    24   ar
    19     4     5   ar
    20     5     6   ar
    21     6    27    1
    22    27    29    1
    23    30    29    1
    24    30    31    1
    25    31    32    1
    26    32    33    1
    27    33    34    1
    28    34    35    1
    29    12    13   ar
    30    13    14   ar
    31    14    15   ar
    32    15    16   ar
    33    16     8   ar
    34    15    10   ar
    35     6     1   ar
    36    35    30    1
    37    24    19   ar
    38    17    18    1
    39    27    28    1
    40    32    36    1
@<TRIPOS>MOLECULE
*****
 36 40 0 0 0
SMALL
GASTEIGER

@<TRIPOS>ATOM
      1 C         142.6260  138.6897  162.3821 C.ar    1  UNL1        0.0324
      2 C         143.8464  139.3353  162.9684 C.ar    1  UNL1        0.1015
      3 N         144.0633  139.3198  164.4525 N.ar    1  UNL1       -0.2290
      4 C         143.0599  138.6587  165.3504 C.ar    1  UNL1        0.1345
      5 C         141.8395  138.0131  164.7640 C.ar    1  UNL1        0.0487
      6 C         141.6225  138.0286  163.2798 C.ar    1  UNL1        0.0490
      7 C         142.6709  136.4786  154.8500 C.3     1  UNL1        0.1538
      8 N         142.5303  137.1372  156.1903 N.ar    1  UNL1       -0.2474
      9 C         142.9957  136.5763  157.5014 C.ar    1  UNL1        0.0966
     10 C         142.6526  137.5647  158.5763 C.ar    1  UNL1        0.0381
     11 C         142.8696  137.5491  160.0605 C.ar    1  UNL1        0.0032
     12 C         142.4091  138.7052  160.8979 C.ar    1  UNL1        0.0028
     13 C         141.7316  139.8769  160.2511 C.ar    1  UNL1        0.0017
     14 C         141.5147  139.8925  158.7670 C.ar    1  UNL1        0.0209
     15 C         141.9752  138.7364  157.9296 C.ar    1  UNL1        0.1024
     16 N         141.8996  138.4721  156.4550 N.ar    1  UNL1       -0.1692
     17 N         143.2768  138.6432  166.8345 N.pl3   1  UNL1       -0.2821
     18 H         143.9437  138.0353  167.2282 H       1  UNL1        0.1551
     19 C         142.4777  139.5539  167.7188 C.ar    1  UNL1        0.1527
     20 C         141.2485  140.2282  167.1858 C.ar    1  UNL1        0.1340
     21 N         140.4494  141.1389  168.0702 N.ar    1  UNL1       -0.2290
     22 C         140.8796  141.3753  169.4875 C.ar    1  UNL1        0.1683
     23 C         142.1088  140.7010  170.0206 C.ar    1  UNL1        0.1299
     24 N         142.9079  139.7903  169.1362 N.ar    1  UNL1       -0.2251
     25 C         140.0805  142.2860  170.3719 C.1     1  UNL1        0.1214
     26 N         139.2814  143.1967  171.2562 N.1     1  UNL1       -0.1892
     27 N         140.4022  137.3830  162.6934 N.pl3   1  UNL1       -0.3306
     28 H         140.4881  136.7776  161.9218 H       1  UNL1        0.1469
     29 C         139.0508  137.6598  163.2827 C.3     1  UNL1        0.1184
     30 C         138.4961  139.0534  163.2653 C.3     1  UNL1        0.1503
     31 C         137.7604  139.5527  162.0572 C.3     1  UNL1        0.1003
     32 N         137.2058  140.9463  162.0398 N.3     1  UNL1       -0.2933
     33 C         137.3868  141.8405  163.2304 C.3     1  UNL1        0.1011
     34 C         138.1225  141.3412  164.4385 C.3     1  UNL1        0.1592
     35 O         138.6772  139.9476  164.4559 O.3     1  UNL1       -0.3516
     36 H         136.2011  140.8614  161.8853 H       1  UNL1        0.1234
@<TRIPOS>BOND
     1     7     8    1
     2     8     9   ar
     3     9    10   ar
     4    10    11   ar
     5    11    12   ar
     6    12     1    1
     7     1     2   ar
     8     2     3   ar
     9     3     4   ar
    10     4    17    1
    11    17    19    1
    12    19    20   ar
    13    20    21   ar
    14    21    22   ar
    15    22    25    1
    16    25    26    3
    17    22    23   ar
    18    23    24   ar
    19     4     5   ar
    20     5     6   ar
    21     6    27    1
    22    27    29    1
    23    30    29    1
    24    30    31    1
    25    31    32    1
    26    32    33    1
    27    33    34    1
    28    34    35    1
    29    12    13   ar
    30    13    14   ar
    31    14    15   ar
    32    15    16   ar
    33    16     8   ar
    34    15    10   ar
    35     6     1   ar
    36    35    30    1
    37    24    19   ar
    38    17    18    1
    39    27    28    1
    40    32    36    1
@<TRIPOS>MOLECULE
*****
 36 40 0 0 0
SMALL
GASTEIGER

@<TRIPOS>ATOM
      1 C         142.8413  139.3650  163.9736 C.ar    1  UNL1        0.0324
      2 C         143.9542  140.0932  163.2798 C.ar    1  UNL1        0.1015
      3 N         144.2318  139.8317  161.8291 N.ar    1  UNL1       -0.2290
      4 C         143.3964  138.8421  161.0721 C.ar    1  UNL1        0.1345
      5 C         142.2836  138.1140  161.7659 C.ar    1  UNL1        0.0487
      6 C         142.0060  138.3754  163.2167 C.ar    1  UNL1        0.0490
      7 C         140.0065  142.6532  170.5139 C.3     1  UNL1        0.1538
      8 N         140.6761  141.8410  169.4452 N.ar    1  UNL1       -0.2474
      9 C         140.5805  142.0786  167.9672 C.ar    1  UNL1        0.0966
     10 C         141.4041  141.0331  167.2754 C.ar    1  UNL1        0.0381
     11 C         141.6816  140.7717  165.8247 C.ar    1  UNL1        0.0032
     12 C         142.5638  139.6265  165.4244 C.ar    1  UNL1        0.0028
     13 C         143.1684  138.7428  166.4748 C.ar    1  UNL1        0.0017
     14 C         142.8909  139.0042  167.9255 C.ar    1  UNL1        0.0209
     15 C         142.0088  140.1494  168.3258 C.ar    1  UNL1        0.1024
     16 N         141.5588  140.6487  169.6668 N.ar    1  UNL1       -0.1692
     17 N         143.6740  138.5807  159.6214 N.pl3   1  UNL1       -0.2821
     18 H         144.6006  138.5855  159.2889 H       1  UNL1        0.1551
     19 C         142.5398  138.3119  158.6774 C.ar    1  UNL1        0.1527
     20 C         142.6117  137.1515  157.7296 C.ar    1  UNL1        0.1340
     21 N         141.4775  136.8827  156.7855 N.ar    1  UNL1       -0.2290
     22 C         140.2713  137.7744  156.7892 C.ar    1  UNL1        0.1683
     23 C         140.1994  138.9348  157.7369 C.ar    1  UNL1        0.1299
     24 N         141.3336  139.2035  158.6810 N.ar    1  UNL1       -0.2251
     25 C         139.1371  137.5056  155.8451 C.1     1  UNL1        0.1214
     26 N         138.0029  137.2368  154.9010 N.1     1  UNL1       -0.1892
     27 N         140.8932  137.6473  163.9105 N.pl3   1  UNL1       -0.3306
     28 H         141.0747  137.1421  164.7357 H       1  UNL1        0.1469
     29 C         139.5037  137.6889  163.3468 C.3     1  UNL1        0.1184
     30 C         138.7608  138.9902  163.2782 C.3     1  UNL1        0.1503
     31 C         137.9438  139.3244  162.0654 C.3     1  UNL1        0.1003
     32 N         137.2009  140.6257  161.9968 N.3     1  UNL1       -0.2933
     33 C         137.2752  141.5929  163.1409 C.3     1  UNL1        0.1011
     34 C         138.0923  141.2588  164.3537 C.3     1  UNL1        0.1592
     35 O         138.8351  139.9575  164.4223 O.3     1  UNL1       -0.3516
     36 H         136.2154  140.3958  161.8691 H       1  UNL1        0.1234
@<TRIPOS>BOND
     1     7     8    1
     2     8     9   ar
     3     9    10   ar
     4    10    11   ar
     5    11    12   ar
     6    12     1    1
     7     1     2   ar
     8     2     3   ar
     9     3     4   ar
    10     4    17    1
    11    17    19    1
    12    19    20   ar
    13    20    21   ar
    14    21    22   ar
    15    22    25    1
    16    25    26    3
    17    22    23   ar
    18    23    24   ar
    19     4     5   ar
    20     5     6   ar
    21     6    27    1
    22    27    29    1
    23    30    29    1
    24    30    31    1
    25    31    32    1
    26    32    33    1
    27    33    34    1
    28    34    35    1
    29    12    13   ar
    30    13    14   ar
    31    14    15   ar
    32    15    16   ar
    33    16     8   ar
    34    15    10   ar
    35     6     1   ar
    36    35    30    1
    37    24    19   ar
    38    17    18    1
    39    27    28    1
    40    32    36    1
@<TRIPOS>MOLECULE
*****
 36 40 0 0 0
SMALL
GASTEIGER

@<TRIPOS>ATOM
      1 C         140.9825  138.4450  162.2285 C.ar    1  UNL1        0.0324
      2 C         142.3862  137.9320  162.1001 C.ar    1  UNL1        0.1015
      3 N         143.0094  137.7837  160.7438 N.ar    1  UNL1       -0.2290
      4 C         142.2289  138.1486  159.5158 C.ar    1  UNL1        0.1345
      5 C         140.8252  138.6616  159.6442 C.ar    1  UNL1        0.0487
      6 C         140.2020  138.8098  161.0006 C.ar    1  UNL1        0.0490
      7 C         139.5788  141.0145  169.5121 C.3     1  UNL1        0.1538
      8 N         139.6250  140.3469  168.1696 N.ar    1  UNL1       -0.2474
      9 C         140.5957  140.6501  167.0670 C.ar    1  UNL1        0.0966
     10 C         140.2793  139.7495  165.9100 C.ar    1  UNL1        0.0381
     11 C         140.9025  139.6013  164.5537 C.ar    1  UNL1        0.0032
     12 C         140.3593  138.5932  163.5849 C.ar    1  UNL1        0.0028
     13 C         139.1929  137.7333  163.9724 C.ar    1  UNL1        0.0017
     14 C         138.5697  137.8815  165.3287 C.ar    1  UNL1        0.0209
     15 C         139.1129  138.8896  166.2975 C.ar    1  UNL1        0.1024
     16 N         138.7086  139.2588  167.6940 N.ar    1  UNL1       -0.1692
     17 N         142.8521  138.0003  158.1595 N.pl3   1  UNL1       -0.2821
     18 H         143.5020  138.6676  157.8408 H       1  UNL1        0.1551
     19 C         142.4851  136.8354  157.2887 C.ar    1  UNL1        0.1527
     20 C         141.3674  136.9635  156.2966 C.ar    1  UNL1        0.1340
     21 N         141.0003  135.7986  155.4258 N.ar    1  UNL1       -0.2290
     22 C         141.7510  134.5056  155.5471 C.ar    1  UNL1        0.1683
     23 C         142.8687  134.3776  156.5392 C.ar    1  UNL1        0.1299
     24 N         143.2357  135.5425  157.4100 N.ar    1  UNL1       -0.2251
     25 C         141.3840  133.3407  154.6763 C.1     1  UNL1        0.1214
     26 N         141.0169  132.1758  153.8055 N.1     1  UNL1       -0.1892
     27 N         138.7983  139.3228  161.1290 N.pl3   1  UNL1       -0.3306
     28 H         138.0744  138.7134  161.4007 H       1  UNL1        0.1469
     29 C         138.4976  140.7644  160.8434 C.3     1  UNL1        0.1184
     30 C         138.1725  141.7001  161.9697 C.3     1  UNL1        0.1503
     31 C         137.8128  141.1530  163.3193 C.3     1  UNL1        0.1003
     32 N         137.4876  142.0887  164.4456 N.3     1  UNL1       -0.2933
     33 C         137.5222  143.5716  164.2225 C.3     1  UNL1        0.1011
     34 C         137.8819  144.1188  162.8729 C.3     1  UNL1        0.1592
     35 O         138.2070  143.1831  161.7465 O.3     1  UNL1       -0.3516
     36 H         138.1496  141.8883  165.1953 H       1  UNL1        0.1234
@<TRIPOS>BOND
     1     7     8    1
     2     8     9   ar
     3     9    10   ar
     4    10    11   ar
     5    11    12   ar
     6    12     1    1
     7     1     2   ar
     8     2     3   ar
     9     3     4   ar
    10     4    17    1
    11    17    19    1
    12    19    20   ar
    13    20    21   ar
    14    21    22   ar
    15    22    25    1
    16    25    26    3
    17    22    23   ar
    18    23    24   ar
    19     4     5   ar
    20     5     6   ar
    21     6    27    1
    22    27    29    1
    23    30    29    1
    24    30    31    1
    25    31    32    1
    26    32    33    1
    27    33    34    1
    28    34    35    1
    29    12    13   ar
    30    13    14   ar
    31    14    15   ar
    32    15    16   ar
    33    16     8   ar
    34    15    10   ar
    35     6     1   ar
    36    35    30    1
    37    24    19   ar
    38    17    18    1
    39    27    28    1
    40    32    36    1
@<TRIPOS>MOLECULE
*****
 36 40 0 0 0
SMALL
GASTEIGER

@<TRIPOS>ATOM
      1 C         142.7559  138.8339  163.4141 C.ar    1  UNL1        0.0324
      2 C         141.7274  138.0609  162.6429 C.ar    1  UNL1        0.1015
      3 N         141.9173  137.8173  161.1751 N.ar    1  UNL1       -0.2290
      4 C         143.1357  138.3467  160.4784 C.ar    1  UNL1        0.1345
      5 C         144.1642  139.1197  161.2496 C.ar    1  UNL1        0.0487
      6 C         143.9743  139.3633  162.7175 C.ar    1  UNL1        0.0490
      7 C         139.8875  141.6325  170.1642 C.3     1  UNL1        0.1538
      8 N         140.6184  140.9536  169.0439 N.ar    1  UNL1       -0.2474
      9 C         140.3311  141.1117  167.5802 C.ar    1  UNL1        0.0966
     10 C         141.3001  140.2533  166.8223 C.ar    1  UNL1        0.0381
     11 C         141.4900  140.0097  165.3545 C.ar    1  UNL1        0.0032
     12 C         142.5660  139.0776  164.8820 C.ar    1  UNL1        0.0028
     13 C         143.4521  138.3890  165.8773 C.ar    1  UNL1        0.0017
     14 C         143.2622  138.6326  167.3452 C.ar    1  UNL1        0.0209
     15 C         142.1862  139.5647  167.8176 C.ar    1  UNL1        0.1024
     16 N         141.7648  139.9976  169.1907 N.ar    1  UNL1       -0.1692
     17 N         143.3256  138.1030  159.0106 N.pl3   1  UNL1       -0.2821
     18 H         144.2330  138.0070  158.6409 H       1  UNL1        0.1551
     19 C         142.1330  138.0057  158.1060 C.ar    1  UNL1        0.1527
     20 C         141.0273  139.0136  158.2117 C.ar    1  UNL1        0.1340
     21 N         139.8347  138.9163  157.3071 N.ar    1  UNL1       -0.2290
     22 C         139.7479  137.8110  156.2968 C.ar    1  UNL1        0.1683
     23 C         140.8536  136.8030  156.1912 C.ar    1  UNL1        0.1299
     24 N         142.0462  136.9004  157.0957 N.ar    1  UNL1       -0.2251
     25 C         138.5553  137.7137  155.3923 C.1     1  UNL1        0.1214
     26 N         137.3627  137.6163  154.4877 N.1     1  UNL1       -0.1892
     27 N         145.0027  140.1363  163.4887 N.pl3   1  UNL1       -0.3306
     28 H         145.4365  139.7309  164.2740 H       1  UNL1        0.1469
     29 C         145.3704  141.5270  163.0632 C.3     1  UNL1        0.1184
     30 C         144.3760  142.6414  163.2025 C.3     1  UNL1        0.1503
     31 C         144.3882  143.7832  162.2299 C.3     1  UNL1        0.1003
     32 N         143.3939  144.8977  162.3691 N.3     1  UNL1       -0.2933
     33 C         142.3874  144.8702  163.4809 C.3     1  UNL1        0.1011
     34 C         142.3752  143.7283  164.4536 C.3     1  UNL1        0.1592
     35 O         143.3695  142.6139  164.3144 O.3     1  UNL1       -0.3516
     36 H         142.8674  144.9333  161.4962 H       1  UNL1        0.1234
@<TRIPOS>BOND
     1     7     8    1
     2     8     9   ar
     3     9    10   ar
     4    10    11   ar
     5    11    12   ar
     6    12     1    1
     7     1     2   ar
     8     2     3   ar
     9     3     4   ar
    10     4    17    1
    11    17    19    1
    12    19    20   ar
    13    20    21   ar
    14    21    22   ar
    15    22    25    1
    16    25    26    3
    17    22    23   ar
    18    23    24   ar
    19     4     5   ar
    20     5     6   ar
    21     6    27    1
    22    27    29    1
    23    30    29    1
    24    30    31    1
    25    31    32    1
    26    32    33    1
    27    33    34    1
    28    34    35    1
    29    12    13   ar
    30    13    14   ar
    31    14    15   ar
    32    15    16   ar
    33    16     8   ar
    34    15    10   ar
    35     6     1   ar
    36    35    30    1
    37    24    19   ar
    38    17    18    1
    39    27    28    1
    40    32    36    1
@<TRIPOS>MOLECULE
*****
 36 40 0 0 0
SMALL
GASTEIGER

@<TRIPOS>ATOM
      1 C         142.1301  138.4226  162.3842 C.ar    1  UNL1        0.0324
      2 C         141.3714  137.5427  163.3329 C.ar    1  UNL1        0.1015
      3 N         141.5666  137.6913  164.8126 N.ar    1  UNL1       -0.2290
      4 C         142.5204  138.7200  165.3438 C.ar    1  UNL1        0.1345
      5 C         143.2791  139.6000  164.3951 C.ar    1  UNL1        0.0487
      6 C         143.0840  139.4513  162.9152 C.ar    1  UNL1        0.0490
      7 C         138.9497  138.9470  155.2265 C.3     1  UNL1        0.1538
      8 N         139.7691  138.7057  156.4594 N.ar    1  UNL1       -0.2474
      9 C         139.4183  139.1426  157.8508 C.ar    1  UNL1        0.0966
     10 C         140.5157  138.6920  158.7688 C.ar    1  UNL1        0.0381
     11 C         140.7108  138.8407  160.2486 C.ar    1  UNL1        0.0032
     12 C         141.9350  138.2739  160.9043 C.ar    1  UNL1        0.0028
     13 C         142.9641  137.5584  160.0803 C.ar    1  UNL1        0.0017
     14 C         142.7690  137.4097  158.6005 C.ar    1  UNL1        0.0209
     15 C         141.5447  137.9765  157.9448 C.ar    1  UNL1        0.1024
     16 N         141.0834  137.9849  156.5175 N.ar    1  UNL1       -0.1692
     17 N         142.7156  138.8687  166.8236 N.pl3   1  UNL1       -0.2821
     18 H         143.2093  138.1813  167.3265 H       1  UNL1        0.1551
     19 C         142.1585  140.0647  167.5371 C.ar    1  UNL1        0.1527
     20 C         140.7005  140.1185  167.8853 C.ar    1  UNL1        0.1340
     21 N         140.1434  141.3145  168.5989 N.ar    1  UNL1       -0.2290
     22 C         141.0443  142.4568  168.9642 C.ar    1  UNL1        0.1683
     23 C         142.5023  142.4031  168.6160 C.ar    1  UNL1        0.1299
     24 N         143.0594  141.2070  167.9024 N.ar    1  UNL1       -0.2251
     25 C         140.4872  143.6529  169.6777 C.1     1  UNL1        0.1214
     26 N         139.9302  144.8489  170.3913 N.1     1  UNL1       -0.1892
     27 N         143.8427  140.3312  161.9665 N.pl3   1  UNL1       -0.3306
     28 H         144.7783  140.1222  161.7426 H       1  UNL1        0.1469
     29 C         143.1758  141.5297  161.3590 C.3     1  UNL1        0.1184
     30 C         142.9819  142.7738  162.1743 C.3     1  UNL1        0.1503
     31 C         143.9758  143.8934  162.0820 C.3     1  UNL1        0.1003
     32 N         143.7819  145.1375  162.8973 N.3     1  UNL1       -0.2933
     33 C         142.5942  145.2620  163.8049 C.3     1  UNL1        0.1011
     34 C         141.6002  144.1423  163.8972 C.3     1  UNL1        0.1592
     35 O         141.7941  142.8982  163.0819 O.3     1  UNL1       -0.3516
     36 H         143.7329  145.9158  162.2398 H       1  UNL1        0.1234
@<TRIPOS>BOND
     1     7     8    1
     2     8     9   ar
     3     9    10   ar
     4    10    11   ar
     5    11    12   ar
     6    12     1    1
     7     1     2   ar
     8     2     3   ar
     9     3     4   ar
    10     4    17    1
    11    17    19    1
    12    19    20   ar
    13    20    21   ar
    14    21    22   ar
    15    22    25    1
    16    25    26    3
    17    22    23   ar
    18    23    24   ar
    19     4     5   ar
    20     5     6   ar
    21     6    27    1
    22    27    29    1
    23    30    29    1
    24    30    31    1
    25    31    32    1
    26    32    33    1
    27    33    34    1
    28    34    35    1
    29    12    13   ar
    30    13    14   ar
    31    14    15   ar
    32    15    16   ar
    33    16     8   ar
    34    15    10   ar
    35     6     1   ar
    36    35    30    1
    37    24    19   ar
    38    17    18    1
    39    27    28    1
    40    32    36    1
