@<TRIPOS>MOLECULE
*****
 26 28 0 0 0
SMALL
GASTEIGER

@<TRIPOS>ATOM
      1 C         138.9569  140.5544  165.7174 C.ar    1  UNL1       -0.0209
      2 C         139.7643  140.8837  166.9379 C.ar    1  UNL1       -0.0041
      3 C         140.6148  142.1190  166.9637 C.ar    1  UNL1        0.0040
      4 C         140.6578  143.0251  165.7690 C.ar    1  UNL1        0.0188
      5 C         139.8504  142.6958  164.5486 C.ar    1  UNL1        0.1106
      6 C         138.9999  141.4604  164.5228 C.ar    1  UNL1        0.0145
      7 C         141.4222  142.4483  168.1842 C.ar    1  UNL1        0.0397
      8 C         140.8919  143.0261  169.4628 C.ar    1  UNL1        0.1216
      9 N         142.0437  143.1925  170.4092 N.ar    1  UNL1       -0.1676
     10 N         143.2860  142.7175  169.7155 N.ar    1  UNL1       -0.2473
     11 C         144.6694  142.7047  170.2952 C.3     1  UNL1        0.1538
     12 C         142.9019  142.2576  168.3404 C.ar    1  UNL1        0.0967
     13 S         139.8934  143.6018  163.3538 S.O2    1  UNL1        0.0346
     14 O         138.4616  143.2719  163.0521 O.2     1  UNL1       -0.1637
     15 O         141.3252  143.9317  163.6556 O.2     1  UNL1       -0.1637
     16 C         139.9365  144.5078  162.1592 C.ar    1  UNL1        0.1599
     17 C         139.4244  145.9165  162.1021 C.ar    1  UNL1        0.1244
     18 N         139.6706  146.4436  160.7195 N.ar    1  UNL1       -0.2384
     19 C         140.3349  145.3605  159.9221 C.ar    1  UNL1        0.1052
     20 S         140.4992  144.1642  160.8119 S.2     1  UNL1       -0.0508
     21 C         140.7602  145.4569  158.4868 C.3     1  UNL1        0.1186
     22 N         142.1601  145.8740  158.1458 N.3     1  UNL1       -0.3157
     23 H         142.3058  146.8420  158.4324 H       1  UNL1        0.1192
     24 H         142.3036  145.7921  157.1393 H       1  UNL1        0.1192
     25 C         137.7736  138.6108  166.9712 C.3     1  UNL1        0.0050
     26 C         138.1064  139.3191  165.6916 C.3     1  UNL1        0.0264
@<TRIPOS>BOND
     1    25    26    1
     2    26     1    1
     3     1     2   ar
     4     2     3   ar
     5     3     7    1
     6     7     8   ar
     7     8     9   ar
     8     9    10   ar
     9    10    11    1
    10    10    12   ar
    11     3     4   ar
    12     4     5   ar
    13     5    13    1
    14    13    14    2
    15    13    15    2
    16    13    16    1
    17    16    17   ar
    18    17    18   ar
    19    18    19   ar
    20    19    21    1
    21    21    22    1
    22    19    20   ar
    23     5     6   ar
    24     6     1   ar
    25    12     7   ar
    26    20    16   ar
    27    22    23    1
    28    22    24    1
@<TRIPOS>MOLECULE
*****
 26 28 0 0 0
SMALL
GASTEIGER

@<TRIPOS>ATOM
      1 C         138.5142  139.7060  162.8510 C.ar    1  UNL1       -0.0209
      2 C         138.7160  141.0149  162.1468 C.ar    1  UNL1       -0.0041
      3 C         139.2054  142.2097  162.9103 C.ar    1  UNL1        0.0040
      4 C         139.4931  142.0956  164.3780 C.ar    1  UNL1        0.0188
      5 C         139.2913  140.7867  165.0822 C.ar    1  UNL1        0.1106
      6 C         138.8019  139.5919  164.3187 C.ar    1  UNL1        0.0145
      7 C         139.4072  143.5187  162.2060 C.ar    1  UNL1        0.0397
      8 C         139.0229  144.8705  162.7303 C.ar    1  UNL1        0.1216
      9 N         139.4069  145.8928  161.7021 N.ar    1  UNL1       -0.1676
     10 N         140.0286  145.1729  160.5422 N.ar    1  UNL1       -0.2473
     11 C         140.5573  145.8087  159.2907 C.3     1  UNL1        0.1538
     12 C         140.0288  143.7056  160.8537 C.ar    1  UNL1        0.0967
     13 S         139.5789  140.6726  166.5500 S.O2    1  UNL1        0.0346
     14 O         139.1449  139.2370  166.5235 O.2     1  UNL1       -0.1637
     15 O         140.0129  142.1081  166.5766 O.2     1  UNL1       -0.1637
     16 C         139.8665  140.5585  168.0177 C.ar    1  UNL1        0.1599
     17 C         138.9251  140.0373  169.0628 C.ar    1  UNL1        0.1244
     18 N         139.6228  140.1022  170.3890 N.ar    1  UNL1       -0.2384
     19 C         140.9954  140.6636  170.1636 C.ar    1  UNL1        0.1052
     20 S         141.1460  140.9455  168.6981 S.2     1  UNL1       -0.0508
     21 C         142.0350  140.9012  171.2186 C.3     1  UNL1        0.1186
     22 N         142.1057  142.2270  171.9166 N.3     1  UNL1       -0.3157
     23 H         142.3729  142.9494  171.2480 H       1  UNL1        0.1192
     24 H         142.7992  142.1815  172.6632 H       1  UNL1        0.1192
     25 C         138.8194  137.9841  160.9297 C.3     1  UNL1        0.0050
     26 C         138.0248  138.5112  162.0875 C.3     1  UNL1        0.0264
@<TRIPOS>BOND
     1    25    26    1
     2    26     1    1
     3     1     2   ar
     4     2     3   ar
     5     3     7    1
     6     7     8   ar
     7     8     9   ar
     8     9    10   ar
     9    10    11    1
    10    10    12   ar
    11     3     4   ar
    12     4     5   ar
    13     5    13    1
    14    13    14    2
    15    13    15    2
    16    13    16    1
    17    16    17   ar
    18    17    18   ar
    19    18    19   ar
    20    19    21    1
    21    21    22    1
    22    19    20   ar
    23     5     6   ar
    24     6     1   ar
    25    12     7   ar
    26    20    16   ar
    27    22    23    1
    28    22    24    1
@<TRIPOS>MOLECULE
*****
 26 28 0 0 0
SMALL
GASTEIGER

@<TRIPOS>ATOM
      1 C         141.2533  143.9442  163.7347 C.ar    1  UNL1       -0.0209
      2 C         140.9550  143.1344  164.9616 C.ar    1  UNL1       -0.0041
      3 C         140.0379  141.9506  164.8741 C.ar    1  UNL1        0.0040
      4 C         139.4192  141.5766  163.5599 C.ar    1  UNL1        0.0188
      5 C         139.7176  142.3864  162.3330 C.ar    1  UNL1        0.1106
      6 C         140.6347  143.5702  162.4205 C.ar    1  UNL1        0.0145
      7 C         139.7395  141.1408  166.1010 C.ar    1  UNL1        0.0397
      8 C         138.9613  139.8592  166.1439 C.ar    1  UNL1        0.1216
      9 N         138.9078  139.3968  167.5698 N.ar    1  UNL1       -0.1676
     10 N         139.6531  140.3926  168.4083 N.ar    1  UNL1       -0.2473
     11 C         139.8498  140.3228  169.8937 C.3     1  UNL1        0.1538
     12 C         140.1671  141.4704  167.5005 C.ar    1  UNL1        0.0967
     13 S         139.0989  142.0125  161.0187 S.O2    1  UNL1        0.0346
     14 O         138.0915  143.1120  161.1800 O.2     1  UNL1       -0.1637
     15 O         140.1063  140.9129  160.8574 O.2     1  UNL1       -0.1637
     16 C         138.4803  141.6385  159.7044 C.ar    1  UNL1        0.1599
     17 C         137.9243  140.2931  159.3427 C.ar    1  UNL1        0.1244
     18 N         137.4094  140.3673  157.9358 N.ar    1  UNL1       -0.2384
     19 C         137.6473  141.7586  157.4280 C.ar    1  UNL1        0.1052
     20 S         138.3091  142.5442  158.5211 S.2     1  UNL1       -0.0508
     21 C         137.2866  142.2738  156.0662 C.3     1  UNL1        0.1186
     22 N         136.3284  143.4195  155.9273 N.3     1  UNL1       -0.3157
     23 H         135.4050  143.1316  156.2509 H       1  UNL1        0.1192
     24 H         136.2734  143.6999  154.9481 H       1  UNL1        0.1192
     25 C         143.6316  144.9263  164.0944 C.3     1  UNL1        0.0050
     26 C         142.1704  145.1280  163.8222 C.3     1  UNL1        0.0264
@<TRIPOS>BOND
     1    25    26    1
     2    26     1    1
     3     1     2   ar
     4     2     3   ar
     5     3     7    1
     6     7     8   ar
     7     8     9   ar
     8     9    10   ar
     9    10    11    1
    10    10    12   ar
    11     3     4   ar
    12     4     5   ar
    13     5    13    1
    14    13    14    2
    15    13    15    2
    16    13    16    1
    17    16    17   ar
    18    17    18   ar
    19    18    19   ar
    20    19    21    1
    21    21    22    1
    22    19    20   ar
    23     5     6   ar
    24     6     1   ar
    25    12     7   ar
    26    20    16   ar
    27    22    23    1
    28    22    24    1
@<TRIPOS>MOLECULE
*****
 26 28 0 0 0
SMALL
GASTEIGER

@<TRIPOS>ATOM
      1 C         138.3986  139.3301  166.6095 C.ar    1  UNL1       -0.0209
      2 C         139.4707  139.9877  167.4269 C.ar    1  UNL1       -0.0041
      3 C         140.3946  140.9834  166.7904 C.ar    1  UNL1        0.0040
      4 C         140.2463  141.3215  165.3365 C.ar    1  UNL1        0.0188
      5 C         139.1742  140.6639  164.5192 C.ar    1  UNL1        0.1106
      6 C         138.2503  139.6682  165.1557 C.ar    1  UNL1        0.0145
      7 C         141.4668  141.6409  167.6078 C.ar    1  UNL1        0.0397
      8 C         142.8617  141.9474  167.1495 C.ar    1  UNL1        0.1216
      9 N         143.5893  142.6033  168.2854 N.ar    1  UNL1       -0.1676
     10 N         142.6439  142.7022  169.4459 N.ar    1  UNL1       -0.2473
     11 C         142.9557  143.2923  170.7893 C.3     1  UNL1        0.1538
     12 C         141.3322  142.1074  169.0271 C.ar    1  UNL1        0.0967
     13 S         139.0258  141.0020  163.0653 S.O2    1  UNL1        0.0346
     14 O         137.9116  140.0048  162.9470 O.2     1  UNL1       -0.1637
     15 O         140.1400  141.9992  163.1836 O.2     1  UNL1       -0.1637
     16 C         138.8776  141.3401  161.6115 C.ar    1  UNL1        0.1599
     17 C         138.1572  140.5182  160.5841 C.ar    1  UNL1        0.1244
     18 N         138.2580  141.2296  159.2674 N.ar    1  UNL1       -0.2384
     19 C         139.0407  142.4913  159.4811 C.ar    1  UNL1        0.1052
     20 S         139.4236  142.5596  160.9298 S.2     1  UNL1       -0.0508
     21 C         139.3808  143.5065  158.4304 C.3     1  UNL1        0.1186
     22 N         139.8765  144.8640  158.8319 N.3     1  UNL1       -0.3157
     23 H         139.1351  145.3659  159.3205 H       1  UNL1        0.1192
     24 H         140.1491  145.3864  157.9992 H       1  UNL1        0.1192
     25 C         137.4753  136.9079  166.7827 C.3     1  UNL1        0.0050
     26 C         137.4747  138.3345  167.2460 C.3     1  UNL1        0.0264
@<TRIPOS>BOND
     1    25    26    1
     2    26     1    1
     3     1     2   ar
     4     2     3   ar
     5     3     7    1
     6     7     8   ar
     7     8     9   ar
     8     9    10   ar
     9    10    11    1
    10    10    12   ar
    11     3     4   ar
    12     4     5   ar
    13     5    13    1
    14    13    14    2
    15    13    15    2
    16    13    16    1
    17    16    17   ar
    18    17    18   ar
    19    18    19   ar
    20    19    21    1
    21    21    22    1
    22    19    20   ar
    23     5     6   ar
    24     6     1   ar
    25    12     7   ar
    26    20    16   ar
    27    22    23    1
    28    22    24    1
@<TRIPOS>MOLECULE
*****
 26 28 0 0 0
SMALL
GASTEIGER

@<TRIPOS>ATOM
      1 C         140.0651  144.2298  163.9617 C.ar    1  UNL1       -0.0209
      2 C         140.9391  143.0957  164.4088 C.ar    1  UNL1       -0.0041
      3 C         141.8880  142.4534  163.4408 C.ar    1  UNL1        0.0040
      4 C         141.9629  142.9451  162.0257 C.ar    1  UNL1        0.0188
      5 C         141.0888  144.0792  161.5787 C.ar    1  UNL1        0.1106
      6 C         140.1399  144.7215  162.5467 C.ar    1  UNL1        0.0145
      7 C         142.7620  141.3193  163.8880 C.ar    1  UNL1        0.0397
      8 C         144.0551  140.8997  163.2541 C.ar    1  UNL1        0.1216
      9 N         144.5887  139.7268  164.0219 N.ar    1  UNL1       -0.1676
     10 N         143.6253  139.4213  165.1303 N.ar    1  UNL1       -0.2473
     11 C         143.7661  138.3243  166.1436 C.3     1  UNL1        0.1538
     12 C         142.4964  140.4056  165.0476 C.ar    1  UNL1        0.0967
     13 S         141.1637  144.5710  160.1635 S.O2    1  UNL1        0.0346
     14 O         142.6266  144.2418  160.1264 O.2     1  UNL1       -0.1637
     15 O         139.7008  144.9003  160.2006 O.2     1  UNL1       -0.1637
     16 C         141.2385  145.0628  158.7484 C.ar    1  UNL1        0.1599
     17 C         142.3906  144.8695  157.8075 C.ar    1  UNL1        0.1244
     18 N         142.0385  145.5215  156.5034 N.ar    1  UNL1       -0.2384
     19 C         140.6687  146.1178  156.6383 C.ar    1  UNL1        0.1052
     20 S         140.1743  145.8343  158.0258 S.2     1  UNL1       -0.0508
     21 C         139.9240  146.8662  155.5727 C.3     1  UNL1        0.1186
     22 N         138.6842  147.6344  155.9228 N.3     1  UNL1       -0.3157
     23 H         137.9542  146.9858  156.2177 H       1  UNL1        0.1192
     24 H         138.3657  148.1564  155.1065 H       1  UNL1        0.1192
     25 C         137.7050  144.3754  165.0381 C.3     1  UNL1        0.0050
     26 C         139.1162  144.8721  164.9298 C.3     1  UNL1        0.0264
@<TRIPOS>BOND
     1    25    26    1
     2    26     1    1
     3     1     2   ar
     4     2     3   ar
     5     3     7    1
     6     7     8   ar
     7     8     9   ar
     8     9    10   ar
     9    10    11    1
    10    10    12   ar
    11     3     4   ar
    12     4     5   ar
    13     5    13    1
    14    13    14    2
    15    13    15    2
    16    13    16    1
    17    16    17   ar
    18    17    18   ar
    19    18    19   ar
    20    19    21    1
    21    21    22    1
    22    19    20   ar
    23     5     6   ar
    24     6     1   ar
    25    12     7   ar
    26    20    16   ar
    27    22    23    1
    28    22    24    1
@<TRIPOS>MOLECULE
*****
 26 28 0 0 0
SMALL
GASTEIGER

@<TRIPOS>ATOM
      1 C         140.4460  143.6817  164.5837 C.ar    1  UNL1       -0.0209
      2 C         140.8698  143.1301  165.9126 C.ar    1  UNL1       -0.0041
      3 C         141.8616  142.0065  165.9764 C.ar    1  UNL1        0.0040
      4 C         142.4294  141.4346  164.7113 C.ar    1  UNL1        0.0188
      5 C         142.0055  141.9863  163.3825 C.ar    1  UNL1        0.1106
      6 C         141.0138  143.1098  163.3186 C.ar    1  UNL1        0.0145
      7 C         142.2855  141.4549  167.3054 C.ar    1  UNL1        0.0397
      8 C         143.0199  142.2041  168.3773 C.ar    1  UNL1        0.1216
      9 N         143.2376  141.2694  169.5301 N.ar    1  UNL1       -0.1676
     10 N         142.6378  139.9424  169.1706 N.ar    1  UNL1       -0.2473
     11 C         142.6281  138.7161  170.0343 C.3     1  UNL1        0.1538
     12 C         142.0493  140.0570  167.7956 C.ar    1  UNL1        0.0967
     13 S         142.5734  141.4144  162.1173 S.O2    1  UNL1        0.0346
     14 O         143.0854  142.7711  161.7337 O.2     1  UNL1       -0.1637
     15 O         142.0614  140.0576  162.5009 O.2     1  UNL1       -0.1637
     16 C         143.1412  140.8424  160.8522 C.ar    1  UNL1        0.1599
     17 C         143.4027  139.3906  160.5805 C.ar    1  UNL1        0.1244
     18 N         143.9703  139.2728  159.1971 N.ar    1  UNL1       -0.2384
     19 C         144.0597  140.6519  158.6138 C.ar    1  UNL1        0.1052
     20 S         143.5472  141.6220  159.6367 S.2     1  UNL1       -0.0508
     21 C         144.5716  140.9998  157.2474 C.3     1  UNL1        0.1186
     22 N         145.5903  140.1225  156.5823 N.3     1  UNL1       -0.3157
     23 H         146.4646  140.1590  157.1065 H       1  UNL1        0.1192
     24 H         145.7511  140.4499  155.6298 H       1  UNL1        0.1192
     25 C         138.3297  144.8703  165.5104 C.3     1  UNL1        0.0050
     26 C         139.4542  144.8053  164.5199 C.3     1  UNL1        0.0264
@<TRIPOS>BOND
     1    25    26    1
     2    26     1    1
     3     1     2   ar
     4     2     3   ar
     5     3     7    1
     6     7     8   ar
     7     8     9   ar
     8     9    10   ar
     9    10    11    1
    10    10    12   ar
    11     3     4   ar
    12     4     5   ar
    13     5    13    1
    14    13    14    2
    15    13    15    2
    16    13    16    1
    17    16    17   ar
    18    17    18   ar
    19    18    19   ar
    20    19    21    1
    21    21    22    1
    22    19    20   ar
    23     5     6   ar
    24     6     1   ar
    25    12     7   ar
    26    20    16   ar
    27    22    23    1
    28    22    24    1
@<TRIPOS>MOLECULE
*****
 26 28 0 0 0
SMALL
GASTEIGER

@<TRIPOS>ATOM
      1 C         141.9477  143.2617  162.8532 C.ar    1  UNL1       -0.0209
      2 C         141.0724  142.7044  161.7701 C.ar    1  UNL1       -0.0041
      3 C         139.9913  141.7220  162.1105 C.ar    1  UNL1        0.0040
      4 C         139.7854  141.2968  163.5341 C.ar    1  UNL1        0.0188
      5 C         140.6606  141.8541  164.6173 C.ar    1  UNL1        0.1106
      6 C         141.7418  142.8365  164.2769 C.ar    1  UNL1        0.0145
      7 C         139.1160  141.1647  161.0272 C.ar    1  UNL1        0.0397
      8 C         138.0425  140.1322  161.2048 C.ar    1  UNL1        0.1216
      9 N         137.4236  139.8715  159.8636 N.ar    1  UNL1       -0.1676
     10 N         138.1146  140.7430  158.8569 N.ar    1  UNL1       -0.2473
     11 C         137.8127  140.8044  157.3889 C.3     1  UNL1        0.1538
     12 C         139.1605  141.5422  159.5762 C.ar    1  UNL1        0.0967
     13 S         140.4548  141.4289  166.0411 S.O2    1  UNL1        0.0346
     14 O         141.5553  142.3508  166.4756 O.2     1  UNL1       -0.1637
     15 O         139.3542  140.5070  165.6065 O.2     1  UNL1       -0.1637
     16 C         140.2489  141.0037  167.4647 C.ar    1  UNL1        0.1599
     17 C         139.3525  139.8960  167.9332 C.ar    1  UNL1        0.1244
     18 N         139.4528  139.8192  169.4279 N.ar    1  UNL1       -0.2384
     19 C         140.4112  140.8796  169.8831 C.ar    1  UNL1        0.1052
     20 S         140.9031  141.6116  168.6698 S.2     1  UNL1       -0.0508
     21 C         140.8079  141.1589  171.3025 C.3     1  UNL1        0.1186
     22 N         142.1643  140.7509  171.7963 N.3     1  UNL1       -0.3157
     23 H         142.2340  139.7333  171.7966 H       1  UNL1        0.1192
     24 H         142.3005  141.1014  172.7444 H       1  UNL1        0.1192
     25 C         143.5900  145.1403  163.5766 C.3     1  UNL1        0.0050
     26 C         143.0289  144.2441  162.5128 C.3     1  UNL1        0.0264
@<TRIPOS>BOND
     1    25    26    1
     2    26     1    1
     3     1     2   ar
     4     2     3   ar
     5     3     7    1
     6     7     8   ar
     7     8     9   ar
     8     9    10   ar
     9    10    11    1
    10    10    12   ar
    11     3     4   ar
    12     4     5   ar
    13     5    13    1
    14    13    14    2
    15    13    15    2
    16    13    16    1
    17    16    17   ar
    18    17    18   ar
    19    18    19   ar
    20    19    21    1
    21    21    22    1
    22    19    20   ar
    23     5     6   ar
    24     6     1   ar
    25    12     7   ar
    26    20    16   ar
    27    22    23    1
    28    22    24    1
@<TRIPOS>MOLECULE
*****
 26 28 0 0 0
SMALL
GASTEIGER

@<TRIPOS>ATOM
      1 C         139.9096  143.3047  164.8191 C.ar    1  UNL1       -0.0209
      2 C         140.0304  142.6134  166.1448 C.ar    1  UNL1       -0.0041
      3 C         140.7679  141.3112  166.2471 C.ar    1  UNL1        0.0040
      4 C         141.3845  140.7004  165.0238 C.ar    1  UNL1        0.0188
      5 C         141.2636  141.3917  163.6981 C.ar    1  UNL1        0.1106
      6 C         140.5262  142.6939  163.5958 C.ar    1  UNL1        0.0145
      7 C         140.8887  140.6199  167.5729 C.ar    1  UNL1        0.0397
      8 C         139.8243  140.5422  168.6269 C.ar    1  UNL1        0.1216
      9 N         140.3730  139.7592  169.7828 N.ar    1  UNL1       -0.1676
     10 N         141.7765  139.3531  169.4431 N.ar    1  UNL1       -0.2473
     11 C         142.6991  138.5551  170.3159 C.3     1  UNL1        0.1538
     12 C         142.0952  139.8850  168.0773 C.ar    1  UNL1        0.0967
     13 S         141.8802  140.7808  162.4747 S.O2    1  UNL1        0.0346
     14 O         141.0681  139.5375  162.6861 O.2     1  UNL1       -0.1637
     15 O         142.6924  142.0240  162.2633 O.2     1  UNL1       -0.1637
     16 C         142.4969  140.1700  161.2513 C.ar    1  UNL1        0.1599
     17 C         143.9088  139.6791  161.1270 C.ar    1  UNL1        0.1244
     18 N         144.0944  139.1486  159.7363 N.ar    1  UNL1       -0.2384
     19 C         142.7971  139.3116  159.0011 C.ar    1  UNL1        0.1052
     20 S         141.8098  139.9428  159.9375 S.2     1  UNL1       -0.0508
     21 C         142.5334  138.9132  157.5792 C.3     1  UNL1        0.1186
     22 N         143.3467  137.8259  156.9418 N.3     1  UNL1       -0.3157
     23 H         144.3159  138.1319  156.8564 H       1  UNL1        0.1192
     24 H         142.9723  137.6198  156.0157 H       1  UNL1        0.1192
     25 C         138.3698  145.1080  165.8809 C.3     1  UNL1        0.0050
     26 C         139.1721  144.6069  164.7168 C.3     1  UNL1        0.0264
@<TRIPOS>BOND
     1    25    26    1
     2    26     1    1
     3     1     2   ar
     4     2     3   ar
     5     3     7    1
     6     7     8   ar
     7     8     9   ar
     8     9    10   ar
     9    10    11    1
    10    10    12   ar
    11     3     4   ar
    12     4     5   ar
    13     5    13    1
    14    13    14    2
    15    13    15    2
    16    13    16    1
    17    16    17   ar
    18    17    18   ar
    19    18    19   ar
    20    19    21    1
    21    21    22    1
    22    19    20   ar
    23     5     6   ar
    24     6     1   ar
    25    12     7   ar
    26    20    16   ar
    27    22    23    1
    28    22    24    1
@<TRIPOS>MOLECULE
*****
 26 28 0 0 0
SMALL
GASTEIGER

@<TRIPOS>ATOM
      1 C         138.8693  140.1767  162.8957 C.ar    1  UNL1       -0.0209
      2 C         138.9326  141.4116  162.0466 C.ar    1  UNL1       -0.0041
      3 C         139.7299  142.5967  162.5046 C.ar    1  UNL1        0.0040
      4 C         140.4640  142.5469  163.8117 C.ar    1  UNL1        0.0188
      5 C         140.4008  141.3121  164.6608 C.ar    1  UNL1        0.1106
      6 C         139.6034  140.1270  164.2029 C.ar    1  UNL1        0.0145
      7 C         139.7932  143.8316  161.6554 C.ar    1  UNL1        0.0397
      8 C         139.4863  145.2287  162.1068 C.ar    1  UNL1        0.1216
      9 N         139.6779  146.1467  160.9361 N.ar    1  UNL1       -0.1676
     10 N         140.1032  145.3169  159.7610 N.ar    1  UNL1       -0.2473
     11 C         140.4043  145.8281  158.3834 C.3     1  UNL1        0.1538
     12 C         140.1744  143.8861  160.2056 C.ar    1  UNL1        0.0967
     13 S         141.1349  141.2623  165.9680 S.O2    1  UNL1        0.0346
     14 O         141.6539  142.6492  165.7295 O.2     1  UNL1       -0.1637
     15 O         140.6158  139.8753  166.2066 O.2     1  UNL1       -0.1637
     16 C         141.8689  141.2124  167.2752 C.ar    1  UNL1        0.1599
     17 C         142.7662  142.2819  167.8238 C.ar    1  UNL1        0.1244
     18 N         143.2864  141.8148  169.1509 N.ar    1  UNL1       -0.2384
     19 C         142.7106  140.4566  169.4224 C.ar    1  UNL1        0.1052
     20 S         141.8345  140.0843  168.2632 S.2     1  UNL1       -0.0508
     21 C         142.9660  139.6179  170.6396 C.3     1  UNL1        0.1186
     22 N         143.1280  138.1327  170.5065 N.3     1  UNL1       -0.3157
     23 H         142.2475  137.7210  170.1972 H       1  UNL1        0.1192
     24 H         143.3897  137.7369  171.4094 H       1  UNL1        0.1192
     25 C         138.6839  137.9926  161.5010 C.3     1  UNL1        0.0050
     26 C         138.0720  138.9916  162.4378 C.3     1  UNL1        0.0264
@<TRIPOS>BOND
     1    25    26    1
     2    26     1    1
     3     1     2   ar
     4     2     3   ar
     5     3     7    1
     6     7     8   ar
     7     8     9   ar
     8     9    10   ar
     9    10    11    1
    10    10    12   ar
    11     3     4   ar
    12     4     5   ar
    13     5    13    1
    14    13    14    2
    15    13    15    2
    16    13    16    1
    17    16    17   ar
    18    17    18   ar
    19    18    19   ar
    20    19    21    1
    21    21    22    1
    22    19    20   ar
    23     5     6   ar
    24     6     1   ar
    25    12     7   ar
    26    20    16   ar
    27    22    23    1
    28    22    24    1
