@<TRIPOS>MOLECULE
*****
 39 43 0 0 0
SMALL
GASTEIGER

@<TRIPOS>ATOM
      1 C         140.5118  139.9943  167.5086 C.3     1  UNL1        0.0780
      2 C         141.9339  139.5931  167.7668 C.3     1  UNL1        0.0358
      3 C         142.7631  140.3623  168.7520 C.3     1  UNL1        0.0591
      4 C         143.1922  141.3742  169.7728 C.3     1  UNL1        0.0174
      5 C         142.0288  142.2815  170.0435 C.3     1  UNL1        0.0174
      6 C         140.8807  141.8303  169.1901 C.3     1  UNL1        0.0591
      7 C         139.9189  141.1646  168.2357 C.3     1  UNL1        0.0358
      8 N         141.3345  140.6442  168.3919 N.3     1  UNL1       -0.2751
      9 N         139.6825  139.2251  166.5233 N.am    1  UNL1       -0.2808
     10 C         140.3502  138.4177  165.4498 C.2     1  UNL1        0.2300
     11 O         141.8471  138.3794  165.3616 O.2     1  UNL1       -0.2745
     12 C         137.4396  138.1059  167.2062 C.3     1  UNL1        0.0233
     13 C         138.1856  139.2633  166.6115 C.3     1  UNL1        0.0934
     14 C         139.5210  137.6485  164.4646 C.3     1  UNL1        0.1116
     15 C         139.4101  138.1227  163.0459 C.ar    1  UNL1       -0.0129
     16 C         138.1467  138.7768  162.5702 C.ar    1  UNL1       -0.0007
     17 C         138.0359  139.2510  161.1514 C.ar    1  UNL1        0.0366
     18 C         139.1884  139.0712  160.2083 C.ar    1  UNL1        0.1387
     19 C         140.4517  138.4172  160.6841 C.ar    1  UNL1        0.0366
     20 C         140.5626  137.9430  162.1028 C.ar    1  UNL1       -0.0007
     21 O         139.0775  139.5454  158.7896 O.3     1  UNL1       -0.4714
     22 C         138.1728  140.6929  158.4509 C.3     1  UNL1        0.2525
     23 C         140.5053  139.8750  167.4067 C.3     1  UNL1        0.0741
     24 C         139.6755  140.6055  166.3928 C.3     1  UNL1        0.0414
     25 C         140.3193  141.6002  165.4731 C.3     1  UNL1        0.0954
     26 C         139.4688  142.5386  164.6694 C.ar    1  UNL1       -0.0045
     27 C         139.7764  144.0067  164.6582 C.ar    1  UNL1       -0.0027
     28 C         138.9259  144.9452  163.8545 C.ar    1  UNL1       -0.0003
     29 C         137.7677  144.4155  163.0619 C.ar    1  UNL1       -0.0000
     30 C         137.4601  142.9474  163.0730 C.ar    1  UNL1       -0.0003
     31 C         138.3106  142.0090  163.8768 C.ar    1  UNL1       -0.0027
     32 N         141.8138  141.6567  165.3570 N.am    1  UNL1       -0.3022
     33 C         142.4729  141.4146  164.0315 C.2     1  UNL1        0.2222
     34 O         141.6374  141.1159  162.8220 O.2     1  UNL1       -0.2751
     35 H         142.3622  141.8528  166.1509 H       1  UNL1        0.1497
     36 C         143.9673  141.4711  163.9155 C.3     1  UNL1        0.0765
     37 C         145.0447  140.4773  163.5967 C.3     1  UNL1        0.0091
     38 C         146.0807  141.5510  163.7514 C.3     1  UNL1        0.0010
     39 C         145.0034  142.5448  164.0702 C.3     1  UNL1        0.0091
@<TRIPOS>BOND
     1    12    13    1
     2    13     9    1
     3     9    10   am
     4    10    11    2
     5    10    14    1
     6    14    15    1
     7    15    16   ar
     8    16    17   ar
     9    17    18   ar
    10    18    21    1
    11    21    22    1
    12    18    19   ar
    13    19    20   ar
    14     1     9    1
    15     1     2    1
    16     3     2    1
    17     3     4    1
    18     4     5    1
    19     6     5    1
    20     6     7    1
    21     6     8    1
    22     8    23    1
    23    23    24    1
    24    25    24    1
    25    25    32    1
    26    32    33   am
    27    33    34    2
    28    33    36    1
    29    36    37    1
    30    37    38    1
    31    38    39    1
    32    25    26    1
    33    26    27   ar
    34    27    28   ar
    35    28    29   ar
    36    29    30   ar
    37    30    31   ar
    38    20    15   ar
    39     7     1    1
    40    39    36    1
    41    31    26   ar
    42     8     3    1
    43    32    35    1
@<TRIPOS>MOLECULE
*****
 39 43 0 0 0
SMALL
GASTEIGER

@<TRIPOS>ATOM
      1 C         142.5802  141.4726  166.5789 C.3     1  UNL1        0.0780
      2 C         142.6857  140.1811  167.3345 C.3     1  UNL1        0.0358
      3 C         141.7129  139.8739  168.4341 C.3     1  UNL1        0.0591
      4 C         140.5764  139.9877  169.4065 C.3     1  UNL1        0.0174
      5 C         139.8930  141.3016  169.1689 C.3     1  UNL1        0.0174
      6 C         140.6070  141.9999  168.0497 C.3     1  UNL1        0.0591
      7 C         141.5019  142.4569  166.9230 C.3     1  UNL1        0.0358
      8 N         141.7318  141.1174  167.5955 N.3     1  UNL1       -0.2751
      9 N         143.5531  141.7798  165.4792 N.am    1  UNL1       -0.2808
     10 C         144.2165  140.6620  164.7308 C.2     1  UNL1        0.2300
     11 O         143.9072  139.2368  165.0819 O.2     1  UNL1       -0.2745
     12 C         145.0344  143.8956  165.7601 C.3     1  UNL1        0.0233
     13 C         143.8625  143.2050  165.1281 C.3     1  UNL1        0.0934
     14 C         145.1893  140.9692  163.6312 C.3     1  UNL1        0.1116
     15 C         144.7229  141.0070  162.2060 C.ar    1  UNL1       -0.0129
     16 C         144.7984  142.2860  161.4259 C.ar    1  UNL1       -0.0007
     17 C         144.3320  142.3239  160.0007 C.ar    1  UNL1        0.0366
     18 C         143.7901  141.0828  159.3557 C.ar    1  UNL1        0.1387
     19 C         143.7147  139.8039  160.1359 C.ar    1  UNL1        0.0366
     20 C         144.1811  139.7660  161.5610 C.ar    1  UNL1       -0.0007
     21 O         143.3237  141.1207  157.9306 O.3     1  UNL1       -0.4714
     22 C         143.0256  142.4358  157.2737 C.3     1  UNL1        0.2525
     23 C         142.7046  141.4246  166.4959 C.3     1  UNL1        0.0741
     24 C         142.2132  141.9881  165.1955 C.3     1  UNL1        0.0414
     25 C         141.2840  141.1856  164.3339 C.3     1  UNL1        0.0954
     26 C         141.0218  141.6071  162.9184 C.ar    1  UNL1       -0.0045
     27 C         141.2402  143.0333  162.5079 C.ar    1  UNL1       -0.0027
     28 C         140.9780  143.4549  161.0924 C.ar    1  UNL1       -0.0003
     29 C         140.4973  142.4503  160.0875 C.ar    1  UNL1       -0.0000
     30 C         140.2789  141.0243  160.4980 C.ar    1  UNL1       -0.0003
     31 C         140.5411  140.6027  161.9134 C.ar    1  UNL1       -0.0027
     32 N         140.6168  139.9615  164.8877 N.am    1  UNL1       -0.3022
     33 C         139.1894  140.0268  165.3440 C.2     1  UNL1        0.2222
     34 O         138.4291  141.3162  165.2466 O.2     1  UNL1       -0.2751
     35 H         141.1158  139.1153  164.9516 H       1  UNL1        0.1497
     36 C         138.5224  138.8028  165.8978 C.3     1  UNL1        0.0765
     37 C         137.6330  138.5189  167.0719 C.3     1  UNL1        0.0091
     38 C         137.5790  137.0717  166.6809 C.3     1  UNL1        0.0010
     39 C         138.4682  137.3556  165.5068 C.3     1  UNL1        0.0091
@<TRIPOS>BOND
     1    12    13    1
     2    13     9    1
     3     9    10   am
     4    10    11    2
     5    10    14    1
     6    14    15    1
     7    15    16   ar
     8    16    17   ar
     9    17    18   ar
    10    18    21    1
    11    21    22    1
    12    18    19   ar
    13    19    20   ar
    14     1     9    1
    15     1     2    1
    16     3     2    1
    17     3     4    1
    18     4     5    1
    19     6     5    1
    20     6     7    1
    21     6     8    1
    22     8    23    1
    23    23    24    1
    24    25    24    1
    25    25    32    1
    26    32    33   am
    27    33    34    2
    28    33    36    1
    29    36    37    1
    30    37    38    1
    31    38    39    1
    32    25    26    1
    33    26    27   ar
    34    27    28   ar
    35    28    29   ar
    36    29    30   ar
    37    30    31   ar
    38    20    15   ar
    39     7     1    1
    40    39    36    1
    41    31    26   ar
    42     8     3    1
    43    32    35    1
@<TRIPOS>MOLECULE
*****
 39 43 0 0 0
SMALL
GASTEIGER

@<TRIPOS>ATOM
      1 C         141.8378  140.0781  166.9088 C.3     1  UNL1        0.0780
      2 C         140.4922  139.9895  167.5656 C.3     1  UNL1        0.0358
      3 C         140.0774  141.0252  168.5682 C.3     1  UNL1        0.0591
      4 C         140.0890  142.2266  169.4662 C.3     1  UNL1        0.0174
      5 C         141.4033  142.9268  169.2866 C.3     1  UNL1        0.0174
      6 C         142.2040  142.1582  168.2776 C.3     1  UNL1        0.0591
      7 C         142.7686  141.2023  167.2546 C.3     1  UNL1        0.0358
      8 N         141.3845  140.9829  167.8336 N.3     1  UNL1       -0.2751
      9 N         142.2527  139.0423  165.9061 N.am    1  UNL1       -0.2808
     10 C         141.2423  138.4713  164.9559 C.2     1  UNL1        0.2300
     11 O         139.8170  138.9360  165.0081 O.2     1  UNL1       -0.2745
     12 C         144.1796  137.5824  166.8578 C.3     1  UNL1        0.0233
     13 C         143.6779  138.5776  165.8538 C.3     1  UNL1        0.0934
     14 C         141.6571  137.4356  163.9533 C.3     1  UNL1        0.1116
     15 C         142.1041  137.8540  162.5839 C.ar    1  UNL1       -0.0129
     16 C         143.5626  138.0632  162.3023 C.ar    1  UNL1       -0.0007
     17 C         144.0096  138.4816  160.9330 C.ar    1  UNL1        0.0366
     18 C         142.9981  138.6907  159.8452 C.ar    1  UNL1        0.1387
     19 C         141.5397  138.4814  160.1268 C.ar    1  UNL1        0.0366
     20 C         141.0928  138.0631  161.4962 C.ar    1  UNL1       -0.0007
     21 O         143.4451  139.1091  158.4758 O.3     1  UNL1       -0.4714
     22 C         142.8636  138.4467  157.2621 C.3     1  UNL1        0.2525
     23 C         141.7993  139.9472  166.8310 C.3     1  UNL1        0.0741
     24 C         142.6458  140.3376  165.6558 C.3     1  UNL1        0.0414
     25 C         142.0860  141.2374  164.5943 C.3     1  UNL1        0.0954
     26 C         142.8916  141.5394  163.3656 C.ar    1  UNL1       -0.0045
     27 C         144.3893  141.5776  163.4414 C.ar    1  UNL1       -0.0027
     28 C         145.1950  141.8795  162.2127 C.ar    1  UNL1       -0.0003
     29 C         144.5030  142.1433  160.9081 C.ar    1  UNL1       -0.0000
     30 C         143.0055  142.1051  160.8324 C.ar    1  UNL1       -0.0003
     31 C         142.1998  141.8032  162.0611 C.ar    1  UNL1       -0.0027
     32 N         140.7205  141.8355  164.7615 N.am    1  UNL1       -0.3022
     33 C         140.5593  143.3243  164.8486 C.2     1  UNL1        0.2222
     34 O         141.7636  144.2150  164.7685 O.2     1  UNL1       -0.2751
     35 H         139.9301  141.2509  164.8140 H       1  UNL1        0.1497
     36 C         139.1939  143.9223  165.0157 C.3     1  UNL1        0.0765
     37 C         137.8312  143.6258  164.4631 C.3     1  UNL1        0.0091
     38 C         137.2629  144.7680  165.2521 C.3     1  UNL1        0.0010
     39 C         138.6255  145.0644  165.8047 C.3     1  UNL1        0.0091
@<TRIPOS>BOND
     1    12    13    1
     2    13     9    1
     3     9    10   am
     4    10    11    2
     5    10    14    1
     6    14    15    1
     7    15    16   ar
     8    16    17   ar
     9    17    18   ar
    10    18    21    1
    11    21    22    1
    12    18    19   ar
    13    19    20   ar
    14     1     9    1
    15     1     2    1
    16     3     2    1
    17     3     4    1
    18     4     5    1
    19     6     5    1
    20     6     7    1
    21     6     8    1
    22     8    23    1
    23    23    24    1
    24    25    24    1
    25    25    32    1
    26    32    33   am
    27    33    34    2
    28    33    36    1
    29    36    37    1
    30    37    38    1
    31    38    39    1
    32    25    26    1
    33    26    27   ar
    34    27    28   ar
    35    28    29   ar
    36    29    30   ar
    37    30    31   ar
    38    20    15   ar
    39     7     1    1
    40    39    36    1
    41    31    26   ar
    42     8     3    1
    43    32    35    1
@<TRIPOS>MOLECULE
*****
 39 43 0 0 0
SMALL
GASTEIGER

@<TRIPOS>ATOM
      1 C         140.9649  142.4239  166.1495 C.3     1  UNL1        0.0780
      2 C         142.0020  141.4190  165.7440 C.3     1  UNL1        0.0358
      3 C         142.4702  140.3865  166.7263 C.3     1  UNL1        0.0591
      4 C         142.6289  139.5789  167.9803 C.3     1  UNL1        0.0174
      5 C         141.7016  140.1432  169.0154 C.3     1  UNL1        0.0174
      6 C         140.9698  141.2995  168.4012 C.3     1  UNL1        0.0591
      7 C         140.3959  142.3964  167.5371 C.3     1  UNL1        0.0358
      8 N         141.4448  141.4499  166.9864 N.3     1  UNL1       -0.2751
      9 N         140.4967  143.4565  165.1672 N.am    1  UNL1       -0.2808
     10 C         141.4849  144.1404  164.2697 C.2     1  UNL1        0.2300
     11 O         142.9414  143.7917  164.3542 O.2     1  UNL1       -0.2745
     12 C         138.5326  145.0654  165.7181 C.3     1  UNL1        0.0233
     13 C         139.0402  143.8051  165.0827 C.3     1  UNL1        0.0934
     14 C         141.0168  145.1729  163.2875 C.3     1  UNL1        0.1116
     15 C         141.1408  144.9176  161.8146 C.ar    1  UNL1       -0.0129
     16 C         142.1394  143.9196  161.3078 C.ar    1  UNL1       -0.0007
     17 C         142.2634  143.6643  159.8349 C.ar    1  UNL1        0.0366
     18 C         141.3888  144.4071  158.8688 C.ar    1  UNL1        0.1387
     19 C         140.3903  145.4051  159.3756 C.ar    1  UNL1        0.0366
     20 C         140.2663  145.6603  160.8485 C.ar    1  UNL1       -0.0007
     21 O         141.5128  144.1518  157.3959 O.3     1  UNL1       -0.4714
     22 C         142.1555  145.1764  156.5087 C.3     1  UNL1        0.2525
     23 C         140.9766  142.4824  166.0042 C.3     1  UNL1        0.0741
     24 C         139.6831  142.2873  165.2703 C.3     1  UNL1        0.0414
     25 C         139.4820  141.0716  164.4150 C.3     1  UNL1        0.0954
     26 C         139.0051  139.7906  165.0327 C.ar    1  UNL1       -0.0045
     27 C         139.3473  138.4771  164.3940 C.ar    1  UNL1       -0.0027
     28 C         138.8704  137.1960  165.0116 C.ar    1  UNL1       -0.0003
     29 C         138.0512  137.2284  166.2679 C.ar    1  UNL1       -0.0000
     30 C         137.7091  138.5418  166.9065 C.ar    1  UNL1       -0.0003
     31 C         138.1860  139.8229  166.2889 C.ar    1  UNL1       -0.0027
     32 N         139.7579  141.1368  162.9420 N.am    1  UNL1       -0.3022
     33 C         138.6422  141.4259  161.9821 C.2     1  UNL1        0.2222
     34 O         137.2505  141.6498  162.4950 O.2     1  UNL1       -0.2751
     35 H         140.6713  140.9898  162.6053 H       1  UNL1        0.1497
     36 C         138.9181  141.4910  160.5091 C.3     1  UNL1        0.0765
     37 C         138.4086  142.3240  159.3704 C.3     1  UNL1        0.0091
     38 C         139.3083  141.5831  158.4260 C.3     1  UNL1        0.0010
     39 C         139.8178  140.7502  159.5647 C.3     1  UNL1        0.0091
@<TRIPOS>BOND
     1    12    13    1
     2    13     9    1
     3     9    10   am
     4    10    11    2
     5    10    14    1
     6    14    15    1
     7    15    16   ar
     8    16    17   ar
     9    17    18   ar
    10    18    21    1
    11    21    22    1
    12    18    19   ar
    13    19    20   ar
    14     1     9    1
    15     1     2    1
    16     3     2    1
    17     3     4    1
    18     4     5    1
    19     6     5    1
    20     6     7    1
    21     6     8    1
    22     8    23    1
    23    23    24    1
    24    25    24    1
    25    25    32    1
    26    32    33   am
    27    33    34    2
    28    33    36    1
    29    36    37    1
    30    37    38    1
    31    38    39    1
    32    25    26    1
    33    26    27   ar
    34    27    28   ar
    35    28    29   ar
    36    29    30   ar
    37    30    31   ar
    38    20    15   ar
    39     7     1    1
    40    39    36    1
    41    31    26   ar
    42     8     3    1
    43    32    35    1
@<TRIPOS>MOLECULE
*****
 39 43 0 0 0
SMALL
GASTEIGER

@<TRIPOS>ATOM
      1 C         143.0439  140.7993  166.0128 C.3     1  UNL1        0.0780
      2 C         142.8168  139.6013  166.8864 C.3     1  UNL1        0.0358
      3 C         142.6565  139.7731  168.3679 C.3     1  UNL1        0.0591
      4 C         142.5566  140.3944  169.7294 C.3     1  UNL1        0.0174
      5 C         142.7264  141.8769  169.5760 C.3     1  UNL1        0.0174
      6 C         142.9312  142.1717  168.1196 C.3     1  UNL1        0.0591
      7 C         143.1108  142.1690  166.6206 C.3     1  UNL1        0.0358
      8 N         142.8881  140.8715  167.3729 N.3     1  UNL1       -0.2751
      9 N         143.2042  140.6276  164.5312 N.am    1  UNL1       -0.2808
     10 C         142.6830  139.3924  163.8586 C.2     1  UNL1        0.2300
     11 O         142.0014  138.3287  164.6674 O.2     1  UNL1       -0.2745
     12 C         145.3598  141.6042  163.4591 C.3     1  UNL1        0.0233
     13 C         143.8857  141.6912  163.7223 C.3     1  UNL1        0.0934
     14 C         142.8432  139.2207  162.3771 C.3     1  UNL1        0.1116
     15 C         141.6682  139.4239  161.4671 C.ar    1  UNL1       -0.0129
     16 C         140.9123  138.2392  160.9424 C.ar    1  UNL1       -0.0007
     17 C         139.7373  138.4424  160.0323 C.ar    1  UNL1        0.0366
     18 C         139.3183  139.8302  159.6470 C.ar    1  UNL1        0.1387
     19 C         140.0743  141.0148  160.1718 C.ar    1  UNL1        0.0366
     20 C         141.2492  140.8116  161.0818 C.ar    1  UNL1       -0.0007
     21 O         138.1433  140.0334  158.7370 O.3     1  UNL1       -0.4714
     22 C         138.3620  140.4299  157.3069 C.3     1  UNL1        0.2525
     23 C         143.0483  140.6997  165.8914 C.3     1  UNL1        0.0741
     24 C         142.2870  141.5824  164.9473 C.3     1  UNL1        0.0414
     25 C         140.7931  141.6738  165.0461 C.3     1  UNL1        0.0954
     26 C         140.0608  142.7760  164.3397 C.ar    1  UNL1       -0.0045
     27 C         138.6227  143.0505  164.6664 C.ar    1  UNL1       -0.0027
     28 C         137.8903  144.1527  163.9601 C.ar    1  UNL1       -0.0003
     29 C         138.5960  144.9802  162.9269 C.ar    1  UNL1       -0.0000
     30 C         140.0340  144.7057  162.6002 C.ar    1  UNL1       -0.0003
     31 C         140.7664  143.6035  163.3066 C.ar    1  UNL1       -0.0027
     32 N         140.0313  140.6631  165.8512 N.am    1  UNL1       -0.3022
     33 C         139.1609  139.6556  165.1603 C.2     1  UNL1        0.2222
     34 O         139.0522  139.6588  163.6643 O.2     1  UNL1       -0.2751
     35 H         140.1026  140.6610  166.8332 H       1  UNL1        0.1497
     36 C         138.3991  138.6450  165.9655 C.3     1  UNL1        0.0765
     37 C         138.1468  137.1707  165.8522 C.3     1  UNL1        0.0091
     38 C         137.3219  137.2157  167.1042 C.3     1  UNL1        0.0010
     39 C         137.5741  138.6899  167.2175 C.3     1  UNL1        0.0091
@<TRIPOS>BOND
     1    12    13    1
     2    13     9    1
     3     9    10   am
     4    10    11    2
     5    10    14    1
     6    14    15    1
     7    15    16   ar
     8    16    17   ar
     9    17    18   ar
    10    18    21    1
    11    21    22    1
    12    18    19   ar
    13    19    20   ar
    14     1     9    1
    15     1     2    1
    16     3     2    1
    17     3     4    1
    18     4     5    1
    19     6     5    1
    20     6     7    1
    21     6     8    1
    22     8    23    1
    23    23    24    1
    24    25    24    1
    25    25    32    1
    26    32    33   am
    27    33    34    2
    28    33    36    1
    29    36    37    1
    30    37    38    1
    31    38    39    1
    32    25    26    1
    33    26    27   ar
    34    27    28   ar
    35    28    29   ar
    36    29    30   ar
    37    30    31   ar
    38    20    15   ar
    39     7     1    1
    40    39    36    1
    41    31    26   ar
    42     8     3    1
    43    32    35    1
@<TRIPOS>MOLECULE
*****
 39 43 0 0 0
SMALL
GASTEIGER

@<TRIPOS>ATOM
      1 C         143.0621  140.8162  166.1638 C.3     1  UNL1        0.0780
      2 C         142.8667  139.4319  166.7075 C.3     1  UNL1        0.0358
      3 C         142.5768  139.2329  168.1656 C.3     1  UNL1        0.0591
      4 C         142.3191  139.5019  169.6186 C.3     1  UNL1        0.0174
      5 C         142.3772  140.9853  169.8327 C.3     1  UNL1        0.0174
      6 C         142.6710  141.6332  168.5121 C.3     1  UNL1        0.0591
      7 C         142.9675  142.0014  167.0784 C.3     1  UNL1        0.0358
      8 N         142.7943  140.5501  167.4818 N.3     1  UNL1       -0.2751
      9 N         143.3520  141.0154  164.7056 N.am    1  UNL1       -0.2808
     10 C         142.8865  140.0014  163.7030 C.2     1  UNL1        0.2300
     11 O         142.1311  138.7883  164.1586 O.2     1  UNL1       -0.2745
     12 C         145.5569  142.1148  163.8811 C.3     1  UNL1        0.0233
     13 C         144.1074  142.2286  164.2500 C.3     1  UNL1        0.0934
     14 C         143.1764  140.2006  162.2449 C.3     1  UNL1        0.1116
     15 C         142.3581  141.1686  161.4429 C.ar    1  UNL1       -0.0129
     16 C         140.8773  140.9689  161.3100 C.ar    1  UNL1       -0.0007
     17 C         140.0590  141.9369  160.5080 C.ar    1  UNL1        0.0366
     18 C         140.7214  143.1046  159.8387 C.ar    1  UNL1        0.1387
     19 C         142.2021  143.3042  159.9716 C.ar    1  UNL1        0.0366
     20 C         143.0204  142.3362  160.7737 C.ar    1  UNL1       -0.0007
     21 O         139.9031  144.0726  159.0367 O.3     1  UNL1       -0.4714
     22 C         140.2894  145.5212  158.9883 C.3     1  UNL1        0.2525
     23 C         143.0842  140.7492  166.0236 C.3     1  UNL1        0.0741
     24 C         142.3723  141.8243  165.2573 C.3     1  UNL1        0.0414
     25 C         140.8731  141.8502  165.2185 C.3     1  UNL1        0.0954
     26 C         140.1613  142.9131  164.4351 C.ar    1  UNL1       -0.0045
     27 C         138.6630  142.9823  164.4544 C.ar    1  UNL1       -0.0027
     28 C         137.9511  144.0451  163.6710 C.ar    1  UNL1       -0.0003
     29 C         138.7376  145.0388  162.8683 C.ar    1  UNL1       -0.0000
     30 C         140.2358  144.9696  162.8491 C.ar    1  UNL1       -0.0003
     31 C         140.9477  143.9067  163.6324 C.ar    1  UNL1       -0.0027
     32 N         140.0854  140.8132  165.9631 N.am    1  UNL1       -0.3022
     33 C         139.2964  139.7852  165.2077 C.2     1  UNL1        0.2222
     34 O         139.2950  139.7941  163.7077 O.2     1  UNL1       -0.2751
     35 H         140.0863  140.8074  166.9476 H       1  UNL1        0.1497
     36 C         138.5088  138.7483  165.9523 C.3     1  UNL1        0.0765
     37 C         138.2602  137.2791  165.7800 C.3     1  UNL1        0.0091
     38 C         137.3950  137.2819  167.0054 C.3     1  UNL1        0.0010
     39 C         137.6437  138.7510  167.1777 C.3     1  UNL1        0.0091
@<TRIPOS>BOND
     1    12    13    1
     2    13     9    1
     3     9    10   am
     4    10    11    2
     5    10    14    1
     6    14    15    1
     7    15    16   ar
     8    16    17   ar
     9    17    18   ar
    10    18    21    1
    11    21    22    1
    12    18    19   ar
    13    19    20   ar
    14     1     9    1
    15     1     2    1
    16     3     2    1
    17     3     4    1
    18     4     5    1
    19     6     5    1
    20     6     7    1
    21     6     8    1
    22     8    23    1
    23    23    24    1
    24    25    24    1
    25    25    32    1
    26    32    33   am
    27    33    34    2
    28    33    36    1
    29    36    37    1
    30    37    38    1
    31    38    39    1
    32    25    26    1
    33    26    27   ar
    34    27    28   ar
    35    28    29   ar
    36    29    30   ar
    37    30    31   ar
    38    20    15   ar
    39     7     1    1
    40    39    36    1
    41    31    26   ar
    42     8     3    1
    43    32    35    1
@<TRIPOS>MOLECULE
*****
 39 43 0 0 0
SMALL
GASTEIGER

@<TRIPOS>ATOM
      1 C         141.5179  144.5080  160.7781 C.3     1  UNL1        0.0780
      2 C         140.6483  145.4287  159.9744 C.3     1  UNL1        0.0358
      3 C         140.8396  145.5358  158.4905 C.3     1  UNL1        0.0591
      4 C         141.3658  145.3282  157.1013 C.3     1  UNL1        0.0174
      5 C         142.4803  144.3268  157.1727 C.3     1  UNL1        0.0174
      6 C         142.6428  143.9155  158.6060 C.3     1  UNL1        0.0591
      7 C         142.5787  143.6943  160.0980 C.3     1  UNL1        0.0358
      8 N         141.6288  144.6627  159.4205 N.3     1  UNL1       -0.2751
      9 N         141.3267  144.4009  162.2621 N.am    1  UNL1       -0.2808
     10 C         139.9718  144.6332  162.8625 C.2     1  UNL1        0.2300
     11 O         138.8081  144.9725  161.9789 O.2     1  UNL1       -0.2745
     12 C         143.2544  145.1545  163.8323 C.3     1  UNL1        0.0233
     13 C         142.4904  144.0616  163.1457 C.3     1  UNL1        0.0934
     14 C         139.7806  144.5261  164.3463 C.3     1  UNL1        0.1116
     15 C         139.5951  143.1809  164.9835 C.ar    1  UNL1       -0.0129
     16 C         138.4909  142.2774  164.5201 C.ar    1  UNL1       -0.0007
     17 C         138.3053  140.9322  165.1573 C.ar    1  UNL1        0.0366
     18 C         139.2239  140.4905  166.2579 C.ar    1  UNL1        0.1387
     19 C         140.3280  141.3941  166.7212 C.ar    1  UNL1        0.0366
     20 C         140.5135  142.7392  166.0840 C.ar    1  UNL1       -0.0007
     21 O         139.0383  139.1453  166.8951 O.3     1  UNL1       -0.4714
     22 C         137.6759  138.5196  166.9429 C.3     1  UNL1        0.2525
     23 C         141.4376  144.5557  160.9044 C.3     1  UNL1        0.0741
     24 C         141.5072  143.2157  161.5749 C.3     1  UNL1        0.0414
     25 C         140.4789  142.1683  161.2661 C.3     1  UNL1        0.0954
     26 C         140.4843  140.8683  162.0144 C.ar    1  UNL1       -0.0045
     27 C         141.5601  140.5870  163.0213 C.ar    1  UNL1       -0.0027
     28 C         141.5655  139.2870  163.7697 C.ar    1  UNL1       -0.0003
     29 C         140.4952  138.2683  163.5112 C.ar    1  UNL1       -0.0000
     30 C         139.4195  138.5496  162.5044 C.ar    1  UNL1       -0.0003
     31 C         139.4141  139.8495  161.7560 C.ar    1  UNL1       -0.0027
     32 N         139.4450  142.4207  160.2089 N.am    1  UNL1       -0.3022
     33 C         139.6195  141.8423  158.8360 C.2     1  UNL1        0.2222
     34 O         140.8277  141.0114  158.5201 O.2     1  UNL1       -0.2751
     35 H         138.6520  142.9661  160.4162 H       1  UNL1        0.1497
     36 C         138.5857  142.0948  157.7789 C.3     1  UNL1        0.0765
     37 C         137.3443  141.3891  157.3193 C.3     1  UNL1        0.0091
     38 C         137.1236  142.4518  156.2840 C.3     1  UNL1        0.0010
     39 C         138.3648  143.1575  156.7435 C.3     1  UNL1        0.0091
@<TRIPOS>BOND
     1    12    13    1
     2    13     9    1
     3     9    10   am
     4    10    11    2
     5    10    14    1
     6    14    15    1
     7    15    16   ar
     8    16    17   ar
     9    17    18   ar
    10    18    21    1
    11    21    22    1
    12    18    19   ar
    13    19    20   ar
    14     1     9    1
    15     1     2    1
    16     3     2    1
    17     3     4    1
    18     4     5    1
    19     6     5    1
    20     6     7    1
    21     6     8    1
    22     8    23    1
    23    23    24    1
    24    25    24    1
    25    25    32    1
    26    32    33   am
    27    33    34    2
    28    33    36    1
    29    36    37    1
    30    37    38    1
    31    38    39    1
    32    25    26    1
    33    26    27   ar
    34    27    28   ar
    35    28    29   ar
    36    29    30   ar
    37    30    31   ar
    38    20    15   ar
    39     7     1    1
    40    39    36    1
    41    31    26   ar
    42     8     3    1
    43    32    35    1
@<TRIPOS>MOLECULE
*****
 39 43 0 0 0
SMALL
GASTEIGER

@<TRIPOS>ATOM
      1 C         141.7368  143.0140  165.1104 C.3     1  UNL1        0.0780
      2 C         140.4319  143.2441  165.8135 C.3     1  UNL1        0.0358
      3 C         140.2744  142.8462  167.2512 C.3     1  UNL1        0.0591
      4 C         140.5620  142.3148  168.6241 C.3     1  UNL1        0.0174
      5 C         141.9777  141.8195  168.6421 C.3     1  UNL1        0.0174
      6 C         142.5651  142.0447  167.2804 C.3     1  UNL1        0.0591
      7 C         142.8841  142.3861  165.8449 C.3     1  UNL1        0.0358
      8 N         141.5124  142.6793  166.4208 N.3     1  UNL1       -0.2751
      9 N         141.8943  143.4118  163.6726 N.am    1  UNL1       -0.2808
     10 C         140.6903  143.4995  162.7824 C.2     1  UNL1        0.2300
     11 O         139.3286  143.1893  163.3298 O.2     1  UNL1       -0.2745
     12 C         143.8221  145.1043  163.2615 C.3     1  UNL1        0.0233
     13 C         143.2560  143.7220  163.1252 C.3     1  UNL1        0.0934
     14 C         140.8478  143.8973  161.3448 C.3     1  UNL1        0.1116
     15 C         141.1285  142.8540  160.3043 C.ar    1  UNL1       -0.0129
     16 C         140.0864  141.8277  159.9710 C.ar    1  UNL1       -0.0007
     17 C         140.3670  140.7844  158.9305 C.ar    1  UNL1        0.0366
     18 C         141.6897  140.7672  158.2232 C.ar    1  UNL1        0.1387
     19 C         142.7317  141.7934  158.5565 C.ar    1  UNL1        0.0366
     20 C         142.4511  142.8368  159.5970 C.ar    1  UNL1       -0.0007
     21 O         141.9703  139.7239  157.1827 O.3     1  UNL1       -0.4714
     22 C         143.3851  139.4209  156.7869 C.3     1  UNL1        0.2525
     23 C         141.6699  143.0772  164.9831 C.3     1  UNL1        0.0741
     24 C         142.3267  142.1401  164.0132 C.3     1  UNL1        0.0414
     25 C         141.6525  140.8532  163.6402 C.3     1  UNL1        0.0954
     26 C         142.2178  140.0009  162.5429 C.ar    1  UNL1       -0.0045
     27 C         143.6044  140.2588  162.0318 C.ar    1  UNL1       -0.0027
     28 C         144.1698  139.4066  160.9345 C.ar    1  UNL1       -0.0003
     29 C         143.3486  138.2965  160.3483 C.ar    1  UNL1       -0.0000
     30 C         141.9622  138.0386  160.8594 C.ar    1  UNL1       -0.0003
     31 C         141.3968  138.8909  161.9567 C.ar    1  UNL1       -0.0027
     32 N         140.4129  140.4184  164.3644 N.am    1  UNL1       -0.3022
     33 C         140.5104  139.4402  165.4974 C.2     1  UNL1        0.2222
     34 O         141.8475  138.8968  165.9062 O.2     1  UNL1       -0.2751
     35 H         139.5354  140.7750  164.0962 H       1  UNL1        0.1497
     36 C         139.2709  139.0054  166.2216 C.3     1  UNL1        0.0765
     37 C         138.5880  139.4121  167.4937 C.3     1  UNL1        0.0091
     38 C         137.5179  138.3905  167.2458 C.3     1  UNL1        0.0010
     39 C         138.2008  137.9838  165.9737 C.3     1  UNL1        0.0091
@<TRIPOS>BOND
     1    12    13    1
     2    13     9    1
     3     9    10   am
     4    10    11    2
     5    10    14    1
     6    14    15    1
     7    15    16   ar
     8    16    17   ar
     9    17    18   ar
    10    18    21    1
    11    21    22    1
    12    18    19   ar
    13    19    20   ar
    14     1     9    1
    15     1     2    1
    16     3     2    1
    17     3     4    1
    18     4     5    1
    19     6     5    1
    20     6     7    1
    21     6     8    1
    22     8    23    1
    23    23    24    1
    24    25    24    1
    25    25    32    1
    26    32    33   am
    27    33    34    2
    28    33    36    1
    29    36    37    1
    30    37    38    1
    31    38    39    1
    32    25    26    1
    33    26    27   ar
    34    27    28   ar
    35    28    29   ar
    36    29    30   ar
    37    30    31   ar
    38    20    15   ar
    39     7     1    1
    40    39    36    1
    41    31    26   ar
    42     8     3    1
    43    32    35    1
@<TRIPOS>MOLECULE
*****
 39 43 0 0 0
SMALL
GASTEIGER

@<TRIPOS>ATOM
      1 C         141.2545  139.0688  164.7058 C.3     1  UNL1        0.0780
      2 C         139.9878  138.3194  164.4165 C.3     1  UNL1        0.0358
      3 C         138.8463  138.3726  165.3882 C.3     1  UNL1        0.0591
      4 C         138.0090  138.7001  166.5889 C.3     1  UNL1        0.0174
      5 C         138.8127  139.5961  167.4840 C.3     1  UNL1        0.0174
      6 C         140.1467  139.8224  166.8365 C.3     1  UNL1        0.0591
      7 C         141.3798  139.8714  165.9669 C.3     1  UNL1        0.0358
      8 N         140.1675  139.0663  165.5412 N.3     1  UNL1       -0.2751
      9 N         142.3961  139.0157  163.7341 N.am    1  UNL1       -0.2808
     10 C         142.3893  138.0076  162.6234 C.2     1  UNL1        0.2300
     11 O         141.2409  137.0526  162.4843 O.2     1  UNL1       -0.2745
     12 C         144.8540  139.4932  164.4272 C.3     1  UNL1        0.0233
     13 C         143.5445  139.9706  163.8732 C.3     1  UNL1        0.0934
     14 C         143.5307  137.9544  161.6518 C.3     1  UNL1        0.1116
     15 C         143.3766  138.5429  160.2807 C.ar    1  UNL1       -0.0129
     16 C         142.7660  137.7281  159.1791 C.ar    1  UNL1       -0.0007
     17 C         142.6118  138.3166  157.8080 C.ar    1  UNL1        0.0366
     18 C         143.0683  139.7198  157.5384 C.ar    1  UNL1        0.1387
     19 C         143.6789  140.5345  158.6400 C.ar    1  UNL1        0.0366
     20 C         143.8330  139.9460  160.0111 C.ar    1  UNL1       -0.0007
     21 O         142.9142  140.3083  156.1673 O.3     1  UNL1       -0.4714
     22 C         142.1890  139.5434  155.1001 C.3     1  UNL1        0.2525
     23 C         141.3090  139.0131  164.5695 C.3     1  UNL1        0.0741
     24 C         141.6116  140.1990  163.7023 C.3     1  UNL1        0.0414
     25 C         140.4964  140.9299  163.0155 C.3     1  UNL1        0.0954
     26 C         139.8912  142.1452  163.6534 C.ar    1  UNL1       -0.0045
     27 C         138.4637  142.1185  164.1134 C.ar    1  UNL1       -0.0027
     28 C         137.8585  143.3338  164.7513 C.ar    1  UNL1       -0.0003
     29 C         138.6808  144.5757  164.9292 C.ar    1  UNL1       -0.0000
     30 C         140.1082  144.6023  164.4692 C.ar    1  UNL1       -0.0003
     31 C         140.7135  143.3871  163.8313 C.ar    1  UNL1       -0.0027
     32 N         139.9861  140.4456  161.6906 N.am    1  UNL1       -0.3022
     33 C         140.3803  141.1563  160.4298 C.2     1  UNL1        0.2222
     34 O         141.2848  142.3512  160.4938 O.2     1  UNL1       -0.2751
     35 H         139.3924  139.6614  161.6486 H       1  UNL1        0.1497
     36 C         139.8700  140.6720  159.1050 C.3     1  UNL1        0.0765
     37 C         139.7751  141.2567  157.7269 C.3     1  UNL1        0.0091
     38 C         139.1484  139.9871  157.2315 C.3     1  UNL1        0.0010
     39 C         139.2432  139.4025  158.6096 C.3     1  UNL1        0.0091
@<TRIPOS>BOND
     1    12    13    1
     2    13     9    1
     3     9    10   am
     4    10    11    2
     5    10    14    1
     6    14    15    1
     7    15    16   ar
     8    16    17   ar
     9    17    18   ar
    10    18    21    1
    11    21    22    1
    12    18    19   ar
    13    19    20   ar
    14     1     9    1
    15     1     2    1
    16     3     2    1
    17     3     4    1
    18     4     5    1
    19     6     5    1
    20     6     7    1
    21     6     8    1
    22     8    23    1
    23    23    24    1
    24    25    24    1
    25    25    32    1
    26    32    33   am
    27    33    34    2
    28    33    36    1
    29    36    37    1
    30    37    38    1
    31    38    39    1
    32    25    26    1
    33    26    27   ar
    34    27    28   ar
    35    28    29   ar
    36    29    30   ar
    37    30    31   ar
    38    20    15   ar
    39     7     1    1
    40    39    36    1
    41    31    26   ar
    42     8     3    1
    43    32    35    1
