@<TRIPOS>MOLECULE
*****
 36 40 0 0 0
SMALL
GASTEIGER

@<TRIPOS>ATOM
      1 C         141.5220  139.2805  162.9626 C.ar    1  UNL1        0.1651
      2 N         142.4155  140.0110  163.9208 N.ar    1  UNL1       -0.2121
      3 C         141.9747  140.2318  165.3375 C.ar    1  UNL1        0.1318
      4 C         140.6404  139.7222  165.7959 C.ar    1  UNL1        0.0491
      5 C         140.1996  139.9430  167.2126 C.ar    1  UNL1        0.0041
      6 C         138.8654  139.4334  167.6710 C.ar    1  UNL1        0.0002
      7 C         137.9720  138.7030  166.7127 C.ar    1  UNL1        0.0015
      8 C         138.4128  138.4822  165.2961 C.ar    1  UNL1        0.0192
      9 C         139.7470  138.9918  164.8377 C.ar    1  UNL1        0.0856
     10 N         140.1878  138.7709  163.4210 N.ar    1  UNL1       -0.2264
     11 C         142.8444  138.6180  158.7126 C.ar    1  UNL1        0.1342
     12 C         141.3824  138.6570  159.0457 C.ar    1  UNL1        0.0346
     13 C         140.9416  138.8779  160.4624 C.ar    1  UNL1        0.0075
     14 C         141.9628  139.0597  161.5459 C.ar    1  UNL1        0.0551
     15 C         143.4249  139.0207  161.2128 C.ar    1  UNL1        0.1033
     16 N         143.8657  138.7999  159.7961 N.ar    1  UNL1       -0.2289
     17 C         143.7470  136.7897  155.3078 C.3     1  UNL1        0.0950
     18 C         143.3062  137.0105  156.7245 C.2     1  UNL1        0.2277
     19 O         142.8864  135.8447  157.5697 O.2     1  UNL1       -0.2747
     20 N         143.2852  138.3972  157.2959 N.am    1  UNL1       -0.2693
     21 H         143.5607  139.1625  156.7412 H       1  UNL1        0.1563
     22 C         141.0931  140.6734  168.1708 C.ar    1  UNL1        0.0001
     23 C         142.1407  139.9239  168.9395 C.ar    1  UNL1        0.0000
     24 C         143.0342  140.6544  169.8977 C.ar    1  UNL1        0.0000
     25 C         142.8800  142.1343  170.0873 C.ar    1  UNL1        0.0000
     26 C         141.8324  142.8839  169.3186 C.ar    1  UNL1        0.0000
     27 C         140.9390  142.1534  168.3604 C.ar    1  UNL1        0.0000
     28 N         142.8681  140.9622  166.2958 N.pl3   1  UNL1       -0.3131
     29 H         142.9419  140.6582  167.2292 H       1  UNL1        0.1485
     30 C         143.6492  142.1559  165.8318 C.3     1  UNL1        0.1348
     31 C         142.9802  143.2158  165.0078 C.ar    1  UNL1        0.0788
     32 C         143.7994  144.1008  164.1158 C.ar    1  UNL1        0.0165
     33 C         143.1304  145.1608  163.2918 C.ar    1  UNL1        0.0029
     34 C         141.6422  145.3358  163.3599 C.ar    1  UNL1        0.0207
     35 C         140.8230  144.4508  164.2520 C.ar    1  UNL1        0.0985
     36 N         141.4920  143.3908  165.0759 N.ar    1  UNL1       -0.2464
@<TRIPOS>BOND
     1    17    18    1
     2    18    19    2
     3    18    20   am
     4    20    11    1
     5    11    12   ar
     6    12    13   ar
     7    13    14   ar
     8    14     1    1
     9     1     2   ar
    10     2     3   ar
    11     3    28    1
    12    28    30    1
    13    30    31    1
    14    31    32   ar
    15    32    33   ar
    16    33    34   ar
    17    34    35   ar
    18    35    36   ar
    19     3     4   ar
    20     4     5   ar
    21     5    22    1
    22    22    23   ar
    23    23    24   ar
    24    24    25   ar
    25    25    26   ar
    26    26    27   ar
    27     5     6   ar
    28     6     7   ar
    29     7     8   ar
    30     8     9   ar
    31     9    10   ar
    32    14    15   ar
    33    15    16   ar
    34    16    11   ar
    35    10     1   ar
    36    36    31   ar
    37     9     4   ar
    38    27    22   ar
    39    20    21    1
    40    28    29    1
@<TRIPOS>MOLECULE
*****
 36 40 0 0 0
SMALL
GASTEIGER

@<TRIPOS>ATOM
      1 C         143.5501  140.5387  161.1414 C.ar    1  UNL1        0.1651
      2 N         142.0936  140.4602  161.4919 N.ar    1  UNL1       -0.2121
      3 C         141.6719  139.9297  162.8300 C.ar    1  UNL1        0.1318
      4 C         142.7065  139.4778  163.8177 C.ar    1  UNL1        0.0491
      5 C         142.2847  138.9473  165.1559 C.ar    1  UNL1        0.0041
      6 C         143.3192  138.4954  166.1435 C.ar    1  UNL1        0.0002
      7 C         144.7755  138.5740  165.7930 C.ar    1  UNL1        0.0015
      8 C         145.1973  139.1044  164.4548 C.ar    1  UNL1        0.0192
      9 C         144.1628  139.5563  163.4672 C.ar    1  UNL1        0.0856
     10 N         144.5846  140.0868  162.1290 N.ar    1  UNL1       -0.2264
     11 C         144.8154  142.1301  157.1268 C.ar    1  UNL1        0.1342
     12 C         144.2907  140.7300  157.2472 C.ar    1  UNL1        0.0346
     13 C         143.8689  140.1996  158.5853 C.ar    1  UNL1        0.0075
     14 C         143.9718  141.0692  159.8032 C.ar    1  UNL1        0.0551
     15 C         144.4966  142.4693  159.6829 C.ar    1  UNL1        0.1033
     16 N         144.9183  142.9997  158.3447 N.ar    1  UNL1       -0.2289
     17 C         147.1164  143.3081  154.1156 C.3     1  UNL1        0.0950
     18 C         146.6946  142.7776  155.4537 C.2     1  UNL1        0.2277
     19 O         147.7302  142.3642  156.4570 O.2     1  UNL1       -0.2747
     20 N         145.2372  142.6605  155.7887 N.am    1  UNL1       -0.2693
     21 H         144.5575  142.9318  155.1302 H       1  UNL1        0.1563
     22 C         140.8283  138.8688  165.5064 C.ar    1  UNL1        0.0001
     23 C         140.0204  137.6750  165.0916 C.ar    1  UNL1        0.0000
     24 C         138.5640  137.5965  165.4421 C.ar    1  UNL1        0.0000
     25 C         137.9156  138.7118  166.2074 C.ar    1  UNL1        0.0000
     26 C         138.7236  139.9056  166.6222 C.ar    1  UNL1        0.0000
     27 C         140.1799  139.9841  166.2717 C.ar    1  UNL1        0.0000
     28 N         140.2155  139.8511  163.1806 N.pl3   1  UNL1       -0.3131
     29 H         139.8786  139.0985  163.7184 H       1  UNL1        0.1485
     30 C         139.2726  140.9194  162.7117 C.3     1  UNL1        0.1348
     31 C         139.1740  142.2147  163.4617 C.ar    1  UNL1        0.0788
     32 C         137.8701  142.6272  164.0778 C.ar    1  UNL1        0.0165
     33 C         137.7715  143.9226  164.8278 C.ar    1  UNL1        0.0029
     34 C         138.9768  144.8053  164.9616 C.ar    1  UNL1        0.0207
     35 C         140.2807  144.3927  164.3455 C.ar    1  UNL1        0.0985
     36 N         140.3793  143.0974  163.5955 N.ar    1  UNL1       -0.2464
@<TRIPOS>BOND
     1    17    18    1
     2    18    19    2
     3    18    20   am
     4    20    11    1
     5    11    12   ar
     6    12    13   ar
     7    13    14   ar
     8    14     1    1
     9     1     2   ar
    10     2     3   ar
    11     3    28    1
    12    28    30    1
    13    30    31    1
    14    31    32   ar
    15    32    33   ar
    16    33    34   ar
    17    34    35   ar
    18    35    36   ar
    19     3     4   ar
    20     4     5   ar
    21     5    22    1
    22    22    23   ar
    23    23    24   ar
    24    24    25   ar
    25    25    26   ar
    26    26    27   ar
    27     5     6   ar
    28     6     7   ar
    29     7     8   ar
    30     8     9   ar
    31     9    10   ar
    32    14    15   ar
    33    15    16   ar
    34    16    11   ar
    35    10     1   ar
    36    36    31   ar
    37     9     4   ar
    38    27    22   ar
    39    20    21    1
    40    28    29    1
@<TRIPOS>MOLECULE
*****
 36 40 0 0 0
SMALL
GASTEIGER

@<TRIPOS>ATOM
      1 C         140.2405  138.8727  160.4556 C.ar    1  UNL1        0.1651
      2 N         140.1687  140.3422  160.7477 N.ar    1  UNL1       -0.2121
      3 C         139.7349  140.8172  162.1028 C.ar    1  UNL1        0.1318
      4 C         139.3730  139.8226  163.1658 C.ar    1  UNL1        0.0491
      5 C         138.9392  140.2976  164.5209 C.ar    1  UNL1        0.0041
      6 C         138.5773  139.3030  165.5838 C.ar    1  UNL1        0.0002
      7 C         138.6491  137.8336  165.2917 C.ar    1  UNL1        0.0015
      8 C         139.0829  137.3586  163.9366 C.ar    1  UNL1        0.0192
      9 C         139.4448  138.3531  162.8736 C.ar    1  UNL1        0.0856
     10 N         139.8786  137.8781  161.5186 N.ar    1  UNL1       -0.2264
     11 C         141.5418  137.4478  156.3904 C.ar    1  UNL1        0.1342
     12 C         142.5507  137.6016  157.4896 C.ar    1  UNL1        0.0346
     13 C         142.1170  138.0766  158.8447 C.ar    1  UNL1        0.0075
     14 C         140.6743  138.3977  159.1005 C.ar    1  UNL1        0.0551
     15 C         139.6653  138.2439  158.0013 C.ar    1  UNL1        0.1033
     16 N         140.0990  137.7689  156.6462 N.ar    1  UNL1       -0.2289
     17 C         142.3121  135.0429  153.3288 C.3     1  UNL1        0.0950
     18 C         141.8783  135.5178  154.6839 C.2     1  UNL1        0.2277
     19 O         141.3472  134.5378  155.6876 O.2     1  UNL1       -0.2747
     20 N         141.9756  136.9728  155.0353 N.am    1  UNL1       -0.2693
     21 H         142.3241  137.6161  154.3765 H       1  UNL1        0.1563
     22 C         138.8674  141.7671  164.8130 C.ar    1  UNL1        0.0001
     23 C         137.6924  142.5696  164.3383 C.ar    1  UNL1        0.0000
     24 C         137.6206  144.0392  164.6304 C.ar    1  UNL1        0.0000
     25 C         138.7238  144.7062  165.3973 C.ar    1  UNL1        0.0000
     26 C         139.8988  143.9036  165.8720 C.ar    1  UNL1        0.0000
     27 C         139.9706  142.4341  165.5798 C.ar    1  UNL1        0.0000
     28 N         139.6631  142.2867  162.3950 N.pl3   1  UNL1       -0.3131
     29 H         138.8980  142.6523  162.8951 H       1  UNL1        0.1485
     30 C         140.7571  143.1992  161.9251 C.3     1  UNL1        0.1348
     31 C         141.9218  143.4976  162.8219 C.ar    1  UNL1        0.0788
     32 C         142.2375  144.9160  163.1942 C.ar    1  UNL1        0.0165
     33 C         143.4022  145.2145  164.0911 C.ar    1  UNL1        0.0029
     34 C         144.2512  144.0946  164.6156 C.ar    1  UNL1        0.0207
     35 C         143.9354  142.6762  164.2433 C.ar    1  UNL1        0.0985
     36 N         142.7707  142.3778  163.3464 N.ar    1  UNL1       -0.2464
@<TRIPOS>BOND
     1    17    18    1
     2    18    19    2
     3    18    20   am
     4    20    11    1
     5    11    12   ar
     6    12    13   ar
     7    13    14   ar
     8    14     1    1
     9     1     2   ar
    10     2     3   ar
    11     3    28    1
    12    28    30    1
    13    30    31    1
    14    31    32   ar
    15    32    33   ar
    16    33    34   ar
    17    34    35   ar
    18    35    36   ar
    19     3     4   ar
    20     4     5   ar
    21     5    22    1
    22    22    23   ar
    23    23    24   ar
    24    24    25   ar
    25    25    26   ar
    26    26    27   ar
    27     5     6   ar
    28     6     7   ar
    29     7     8   ar
    30     8     9   ar
    31     9    10   ar
    32    14    15   ar
    33    15    16   ar
    34    16    11   ar
    35    10     1   ar
    36    36    31   ar
    37     9     4   ar
    38    27    22   ar
    39    20    21    1
    40    28    29    1
@<TRIPOS>MOLECULE
*****
 36 40 0 0 0
SMALL
GASTEIGER

@<TRIPOS>ATOM
      1 C         139.8493  141.8799  163.0930 C.ar    1  UNL1        0.1651
      2 N         140.8313  142.5230  164.0270 N.ar    1  UNL1       -0.2121
      3 C         140.8712  142.1157  165.4701 C.ar    1  UNL1        0.1318
      4 C         139.9290  141.0653  165.9792 C.ar    1  UNL1        0.0491
      5 C         139.9688  140.6580  167.4223 C.ar    1  UNL1        0.0041
      6 C         139.0268  139.6076  167.9314 C.ar    1  UNL1        0.0002
      7 C         138.0448  138.9646  166.9974 C.ar    1  UNL1        0.0015
      8 C         138.0050  139.3720  165.5543 C.ar    1  UNL1        0.0192
      9 C         138.9471  140.4223  165.0452 C.ar    1  UNL1        0.0856
     10 N         138.9073  140.8296  163.6021 N.ar    1  UNL1       -0.2264
     11 C         139.7298  143.1019  158.7637 C.ar    1  UNL1        0.1342
     12 C         141.0472  142.8550  159.4373 C.ar    1  UNL1        0.0346
     13 C         141.0870  142.4477  160.8804 C.ar    1  UNL1        0.0075
     14 C         139.8095  142.2872  161.6499 C.ar    1  UNL1        0.0551
     15 C         138.4921  142.5341  160.9764 C.ar    1  UNL1        0.1033
     16 N         138.4523  142.9414  159.5333 N.ar    1  UNL1       -0.2289
     17 C         139.8619  145.3520  155.4973 C.3     1  UNL1        0.0950
     18 C         139.9017  144.9446  156.9404 C.2     1  UNL1        0.2277
     19 O         140.1532  145.9728  158.0032 O.2     1  UNL1       -0.2747
     20 N         139.6900  143.5092  157.3207 N.am    1  UNL1       -0.2693
     21 H         139.5249  142.8344  156.6231 H       1  UNL1        0.1563
     22 C         140.9508  141.3010  168.3563 C.ar    1  UNL1        0.0001
     23 C         140.6246  142.6170  168.9978 C.ar    1  UNL1        0.0000
     24 C         141.6066  143.2601  169.9317 C.ar    1  UNL1        0.0000
     25 C         142.9148  142.5871  170.2242 C.ar    1  UNL1        0.0000
     26 C         143.2411  141.2710  169.5826 C.ar    1  UNL1        0.0000
     27 C         142.2591  140.6280  168.6487 C.ar    1  UNL1        0.0000
     28 N         141.8531  142.7587  166.4040 N.pl3   1  UNL1       -0.3131
     29 H         141.5333  143.2227  167.2113 H       1  UNL1        0.1485
     30 C         143.3223  142.6947  166.1081 C.3     1  UNL1        0.1348
     31 C         143.8011  142.6829  164.6866 C.ar    1  UNL1        0.0788
     32 C         143.8981  143.9669  163.9173 C.ar    1  UNL1        0.0165
     33 C         144.3770  143.9552  162.4958 C.ar    1  UNL1        0.0029
     34 C         144.7589  142.6594  161.8437 C.ar    1  UNL1        0.0207
     35 C         144.6619  141.3754  162.6131 C.ar    1  UNL1        0.0985
     36 N         144.1830  141.3872  164.0346 N.ar    1  UNL1       -0.2464
@<TRIPOS>BOND
     1    17    18    1
     2    18    19    2
     3    18    20   am
     4    20    11    1
     5    11    12   ar
     6    12    13   ar
     7    13    14   ar
     8    14     1    1
     9     1     2   ar
    10     2     3   ar
    11     3    28    1
    12    28    30    1
    13    30    31    1
    14    31    32   ar
    15    32    33   ar
    16    33    34   ar
    17    34    35   ar
    18    35    36   ar
    19     3     4   ar
    20     4     5   ar
    21     5    22    1
    22    22    23   ar
    23    23    24   ar
    24    24    25   ar
    25    25    26   ar
    26    26    27   ar
    27     5     6   ar
    28     6     7   ar
    29     7     8   ar
    30     8     9   ar
    31     9    10   ar
    32    14    15   ar
    33    15    16   ar
    34    16    11   ar
    35    10     1   ar
    36    36    31   ar
    37     9     4   ar
    38    27    22   ar
    39    20    21    1
    40    28    29    1
@<TRIPOS>MOLECULE
*****
 36 40 0 0 0
SMALL
GASTEIGER

@<TRIPOS>ATOM
      1 C         139.9253  143.4193  159.8954 C.ar    1  UNL1        0.1651
      2 N         140.5777  142.0937  160.1549 N.ar    1  UNL1       -0.2121
      3 C         140.3025  141.3601  161.4340 C.ar    1  UNL1        0.1318
      4 C         139.3748  141.9519  162.4534 C.ar    1  UNL1        0.0491
      5 C         139.0995  141.2182  163.7324 C.ar    1  UNL1        0.0041
      6 C         138.1719  141.8100  164.7518 C.ar    1  UNL1        0.0002
      7 C         137.5195  143.1355  164.4922 C.ar    1  UNL1        0.0015
      8 C         137.7948  143.8692  163.2132 C.ar    1  UNL1        0.0192
      9 C         138.7224  143.2774  162.1938 C.ar    1  UNL1        0.0856
     10 N         138.9977  144.0111  160.9148 N.ar    1  UNL1       -0.2264
     11 C         140.7512  145.6204  156.0583 C.ar    1  UNL1        0.1342
     12 C         141.5176  145.9653  157.3007 C.ar    1  UNL1        0.0346
     13 C         141.2423  145.2316  158.5797 C.ar    1  UNL1        0.0075
     14 C         140.2006  144.1530  158.6163 C.ar    1  UNL1        0.0551
     15 C         139.4341  143.8080  157.3739 C.ar    1  UNL1        0.1033
     16 N         139.7094  144.5417  156.0949 N.ar    1  UNL1       -0.2289
     17 C         140.4904  148.2967  153.1395 C.3     1  UNL1        0.0950
     18 C         140.2151  147.5630  154.4185 C.2     1  UNL1        0.2277
     19 O         139.1285  148.0383  155.3369 O.2     1  UNL1       -0.2747
     20 N         141.0264  146.3541  154.7792 N.am    1  UNL1       -0.2693
     21 H         141.7396  146.0421  154.1765 H       1  UNL1        0.1563
     22 C         139.7519  139.8927  163.9920 C.ar    1  UNL1        0.0001
     23 C         139.1527  138.6386  163.4280 C.ar    1  UNL1        0.0000
     24 C         139.8051  137.3130  163.6876 C.ar    1  UNL1        0.0000
     25 C         141.0567  137.2416  164.5112 C.ar    1  UNL1        0.0000
     26 C         141.6559  138.4958  165.0752 C.ar    1  UNL1        0.0000
     27 C         141.0035  139.8213  164.8156 C.ar    1  UNL1        0.0000
     28 N         140.9548  140.0346  161.6936 N.pl3   1  UNL1       -0.3131
     29 H         140.4398  139.3054  162.1087 H       1  UNL1        0.1485
     30 C         142.3919  139.8200  161.3208 C.3     1  UNL1        0.1348
     31 C         143.4792  140.4841  162.1124 C.ar    1  UNL1        0.0788
     32 C         144.2419  139.7030  163.1411 C.ar    1  UNL1        0.0165
     33 C         145.3293  140.3670  163.9327 C.ar    1  UNL1        0.0029
     34 C         145.6540  141.8121  163.6957 C.ar    1  UNL1        0.0207
     35 C         144.8912  142.5932  162.6670 C.ar    1  UNL1        0.0985
     36 N         143.8039  141.9292  161.8754 N.ar    1  UNL1       -0.2464
@<TRIPOS>BOND
     1    17    18    1
     2    18    19    2
     3    18    20   am
     4    20    11    1
     5    11    12   ar
     6    12    13   ar
     7    13    14   ar
     8    14     1    1
     9     1     2   ar
    10     2     3   ar
    11     3    28    1
    12    28    30    1
    13    30    31    1
    14    31    32   ar
    15    32    33   ar
    16    33    34   ar
    17    34    35   ar
    18    35    36   ar
    19     3     4   ar
    20     4     5   ar
    21     5    22    1
    22    22    23   ar
    23    23    24   ar
    24    24    25   ar
    25    25    26   ar
    26    26    27   ar
    27     5     6   ar
    28     6     7   ar
    29     7     8   ar
    30     8     9   ar
    31     9    10   ar
    32    14    15   ar
    33    15    16   ar
    34    16    11   ar
    35    10     1   ar
    36    36    31   ar
    37     9     4   ar
    38    27    22   ar
    39    20    21    1
    40    28    29    1
@<TRIPOS>MOLECULE
*****
 36 40 0 0 0
SMALL
GASTEIGER

@<TRIPOS>ATOM
      1 C         142.5765  139.7843  162.3784 C.ar    1  UNL1        0.1651
      2 N         141.7981  139.2407  163.5398 N.ar    1  UNL1       -0.2121
      3 C         141.9125  139.8880  164.8881 C.ar    1  UNL1        0.1318
      4 C         142.8053  141.0789  165.0751 C.ar    1  UNL1        0.0491
      5 C         142.9197  141.7262  166.4234 C.ar    1  UNL1        0.0041
      6 C         143.8124  142.9169  166.6103 C.ar    1  UNL1        0.0002
      7 C         144.5908  143.4604  165.4490 C.ar    1  UNL1        0.0015
      8 C         144.4764  142.8132  164.1007 C.ar    1  UNL1        0.0192
      9 C         143.5836  141.6224  163.9137 C.ar    1  UNL1        0.0856
     10 N         143.4692  140.9751  162.5654 N.ar    1  UNL1       -0.2264
     11 C         142.2332  137.8425  158.3335 C.ar    1  UNL1        0.1342
     12 C         141.4188  139.0612  158.6519 C.ar    1  UNL1        0.0346
     13 C         141.5332  139.7084  160.0002 C.ar    1  UNL1        0.0075
     14 C         142.4621  139.1370  161.0301 C.ar    1  UNL1        0.0551
     15 C         143.2766  137.9183  160.7117 C.ar    1  UNL1        0.1033
     16 N         143.1621  137.2710  159.3634 N.ar    1  UNL1       -0.2289
     17 C         143.0357  136.8230  154.5830 C.3     1  UNL1        0.0950
     18 C         143.1501  137.4702  155.9313 C.2     1  UNL1        0.2277
     19 O         144.2957  138.3926  156.2256 O.2     1  UNL1       -0.2747
     20 N         142.1188  137.1952  156.9852 N.am    1  UNL1       -0.2693
     21 H         141.3669  136.5898  156.7920 H       1  UNL1        0.1563
     22 C         142.1413  141.1826  167.5847 C.ar    1  UNL1        0.0001
     23 C         140.8276  141.8004  167.9621 C.ar    1  UNL1        0.0000
     24 C         140.0492  141.2568  169.1235 C.ar    1  UNL1        0.0000
     25 C         140.5846  140.0954  169.9074 C.ar    1  UNL1        0.0000
     26 C         141.8984  139.4777  169.5300 C.ar    1  UNL1        0.0000
     27 C         142.6767  140.0212  168.3687 C.ar    1  UNL1        0.0000
     28 N         141.1342  139.3445  166.0495 N.pl3   1  UNL1       -0.3131
     29 H         141.6011  139.0828  166.8757 H       1  UNL1        0.1485
     30 C         139.6443  139.1998  165.9520 C.3     1  UNL1        0.1348
     31 C         138.8818  139.9728  164.9171 C.ar    1  UNL1        0.0788
     32 C         138.5556  141.4182  165.1502 C.ar    1  UNL1        0.0165
     33 C         137.7930  142.1913  164.1152 C.ar    1  UNL1        0.0029
     34 C         137.3568  141.5189  162.8473 C.ar    1  UNL1        0.0207
     35 C         137.6831  140.0735  162.6143 C.ar    1  UNL1        0.0985
     36 N         138.4456  139.3004  163.6492 N.ar    1  UNL1       -0.2464
@<TRIPOS>BOND
     1    17    18    1
     2    18    19    2
     3    18    20   am
     4    20    11    1
     5    11    12   ar
     6    12    13   ar
     7    13    14   ar
     8    14     1    1
     9     1     2   ar
    10     2     3   ar
    11     3    28    1
    12    28    30    1
    13    30    31    1
    14    31    32   ar
    15    32    33   ar
    16    33    34   ar
    17    34    35   ar
    18    35    36   ar
    19     3     4   ar
    20     4     5   ar
    21     5    22    1
    22    22    23   ar
    23    23    24   ar
    24    24    25   ar
    25    25    26   ar
    26    26    27   ar
    27     5     6   ar
    28     6     7   ar
    29     7     8   ar
    30     8     9   ar
    31     9    10   ar
    32    14    15   ar
    33    15    16   ar
    34    16    11   ar
    35    10     1   ar
    36    36    31   ar
    37     9     4   ar
    38    27    22   ar
    39    20    21    1
    40    28    29    1
@<TRIPOS>MOLECULE
*****
 36 40 0 0 0
SMALL
GASTEIGER

@<TRIPOS>ATOM
      1 C         139.1539  142.4564  159.9663 C.ar    1  UNL1        0.1651
      2 N         140.5880  142.4221  160.4049 N.ar    1  UNL1       -0.2121
      3 C         140.9636  142.8935  161.7785 C.ar    1  UNL1        0.1318
      4 C         139.9052  143.3991  162.7134 C.ar    1  UNL1        0.0491
      5 C         140.2808  143.8705  164.0870 C.ar    1  UNL1        0.0041
      6 C         139.2224  144.3761  165.0219 C.ar    1  UNL1        0.0002
      7 C         137.7884  144.4103  164.5833 C.ar    1  UNL1        0.0015
      8 C         137.4128  143.9389  163.2097 C.ar    1  UNL1        0.0192
      9 C         138.4712  143.4334  162.2748 C.ar    1  UNL1        0.0856
     10 N         138.0956  142.9620  160.9012 N.ar    1  UNL1       -0.2264
     11 C         138.0271  141.0423  155.8455 C.ar    1  UNL1        0.1342
     12 C         138.7238  140.1117  156.7934 C.ar    1  UNL1        0.0346
     13 C         139.0994  140.5830  158.1670 C.ar    1  UNL1        0.0075
     14 C         138.7783  141.9850  158.5927 C.ar    1  UNL1        0.0551
     15 C         138.0816  142.9157  157.6448 C.ar    1  UNL1        0.1033
     16 N         137.7059  142.4444  156.2712 N.ar    1  UNL1       -0.2289
     17 C         136.0027  139.3344  152.8901 C.3     1  UNL1        0.0950
     18 C         136.3783  139.8057  154.2637 C.2     1  UNL1        0.2277
     19 O         135.4807  139.5119  155.4290 O.2     1  UNL1       -0.2747
     20 N         137.6515  140.5709  154.4719 N.am    1  UNL1       -0.2693
     21 H         138.2406  140.7638  153.7071 H       1  UNL1        0.1563
     22 C         141.7149  143.8362  164.5256 C.ar    1  UNL1        0.0001
     23 C         142.6746  144.8790  164.0342 C.ar    1  UNL1        0.0000
     24 C         144.1086  144.8448  164.4728 C.ar    1  UNL1        0.0000
     25 C         144.5829  143.7677  165.4029 C.ar    1  UNL1        0.0000
     26 C         143.6232  142.7249  165.8943 C.ar    1  UNL1        0.0000
     27 C         142.1892  142.7592  165.4556 C.ar    1  UNL1        0.0000
     28 N         142.3976  142.8593  162.2171 N.pl3   1  UNL1       -0.3131
     29 H         142.7896  143.6351  162.6793 H       1  UNL1        0.1485
     30 C         143.2344  141.6429  161.9515 C.3     1  UNL1        0.1348
     31 C         143.4485  140.6286  163.0355 C.ar    1  UNL1        0.0788
     32 C         144.8323  140.3589  163.5476 C.ar    1  UNL1        0.0165
     33 C         145.0465  139.3445  164.6317 C.ar    1  UNL1        0.0029
     34 C         143.8768  138.5998  165.2037 C.ar    1  UNL1        0.0207
     35 C         142.4929  138.8696  164.6916 C.ar    1  UNL1        0.0985
     36 N         142.2788  139.8839  163.6076 N.ar    1  UNL1       -0.2464
@<TRIPOS>BOND
     1    17    18    1
     2    18    19    2
     3    18    20   am
     4    20    11    1
     5    11    12   ar
     6    12    13   ar
     7    13    14   ar
     8    14     1    1
     9     1     2   ar
    10     2     3   ar
    11     3    28    1
    12    28    30    1
    13    30    31    1
    14    31    32   ar
    15    32    33   ar
    16    33    34   ar
    17    34    35   ar
    18    35    36   ar
    19     3     4   ar
    20     4     5   ar
    21     5    22    1
    22    22    23   ar
    23    23    24   ar
    24    24    25   ar
    25    25    26   ar
    26    26    27   ar
    27     5     6   ar
    28     6     7   ar
    29     7     8   ar
    30     8     9   ar
    31     9    10   ar
    32    14    15   ar
    33    15    16   ar
    34    16    11   ar
    35    10     1   ar
    36    36    31   ar
    37     9     4   ar
    38    27    22   ar
    39    20    21    1
    40    28    29    1
@<TRIPOS>MOLECULE
*****
 36 40 0 0 0
SMALL
GASTEIGER

@<TRIPOS>ATOM
      1 C         142.6479  140.4492  161.2954 C.ar    1  UNL1        0.1651
      2 N         143.0028  141.1399  162.5788 N.ar    1  UNL1       -0.2121
      3 C         142.3276  140.7402  163.8572 C.ar    1  UNL1        0.1318
      4 C         141.2974  139.6498  163.8521 C.ar    1  UNL1        0.0491
      5 C         140.6221  139.2501  165.1305 C.ar    1  UNL1        0.0041
      6 C         139.5920  138.1598  165.1255 C.ar    1  UNL1        0.0002
      7 C         139.2372  137.4692  163.8421 C.ar    1  UNL1        0.0015
      8 C         139.9125  137.8689  162.5638 C.ar    1  UNL1        0.0192
      9 C         140.9426  138.9592  162.5688 C.ar    1  UNL1        0.0856
     10 N         141.6178  139.3589  161.2904 N.ar    1  UNL1       -0.2264
     11 C         144.6737  141.6483  157.4602 C.ar    1  UNL1        0.1342
     12 C         144.2057  142.7000  158.4218 C.ar    1  UNL1        0.0346
     13 C         143.5304  142.3003  159.7002 C.ar    1  UNL1        0.0075
     14 C         143.3232  140.8489  160.0170 C.ar    1  UNL1        0.0551
     15 C         143.7913  139.7971  159.0554 C.ar    1  UNL1        0.1033
     16 N         144.4665  140.1968  157.7770 N.ar    1  UNL1       -0.2289
     17 C         147.4016  143.0407  154.9364 C.3     1  UNL1        0.0950
     18 C         146.7264  142.6410  156.2148 C.2     1  UNL1        0.2277
     19 O         147.4285  142.8343  157.5261 O.2     1  UNL1       -0.2747
     20 N         145.3490  142.0480  156.1819 N.am    1  UNL1       -0.2693
     21 H         144.8882  141.9211  155.3212 H       1  UNL1        0.1563
     22 C         140.9770  139.9408  166.4139 C.ar    1  UNL1        0.0001
     23 C         142.1822  139.5035  167.1926 C.ar    1  UNL1        0.0000
     24 C         142.5371  140.1942  168.4760 C.ar    1  UNL1        0.0000
     25 C         141.6867  141.3221  168.9807 C.ar    1  UNL1        0.0000
     26 C         140.4815  141.7594  168.2020 C.ar    1  UNL1        0.0000
     27 C         140.1267  141.0687  166.9186 C.ar    1  UNL1        0.0000
     28 N         142.6824  141.4308  165.1406 N.pl3   1  UNL1       -0.3131
     29 H         142.8756  140.9010  165.9475 H       1  UNL1        0.1485
     30 C         142.7428  142.9287  165.1944 C.3     1  UNL1        0.1348
     31 C         141.7243  143.7474  164.4581 C.ar    1  UNL1        0.0788
     32 C         142.1099  144.4719  163.2026 C.ar    1  UNL1        0.0165
     33 C         141.0913  145.2906  162.4662 C.ar    1  UNL1        0.0029
     34 C         139.6871  145.3848  162.9853 C.ar    1  UNL1        0.0207
     35 C         139.3016  144.6602  164.2409 C.ar    1  UNL1        0.0985
     36 N         140.3201  143.8415  164.9772 N.ar    1  UNL1       -0.2464
@<TRIPOS>BOND
     1    17    18    1
     2    18    19    2
     3    18    20   am
     4    20    11    1
     5    11    12   ar
     6    12    13   ar
     7    13    14   ar
     8    14     1    1
     9     1     2   ar
    10     2     3   ar
    11     3    28    1
    12    28    30    1
    13    30    31    1
    14    31    32   ar
    15    32    33   ar
    16    33    34   ar
    17    34    35   ar
    18    35    36   ar
    19     3     4   ar
    20     4     5   ar
    21     5    22    1
    22    22    23   ar
    23    23    24   ar
    24    24    25   ar
    25    25    26   ar
    26    26    27   ar
    27     5     6   ar
    28     6     7   ar
    29     7     8   ar
    30     8     9   ar
    31     9    10   ar
    32    14    15   ar
    33    15    16   ar
    34    16    11   ar
    35    10     1   ar
    36    36    31   ar
    37     9     4   ar
    38    27    22   ar
    39    20    21    1
    40    28    29    1
@<TRIPOS>MOLECULE
*****
 36 40 0 0 0
SMALL
GASTEIGER

@<TRIPOS>ATOM
      1 C         140.6954  142.4113  160.2822 C.ar    1  UNL1        0.1651
      2 N         140.0619  142.5791  161.6315 N.ar    1  UNL1       -0.2121
      3 C         140.0899  141.4502  162.6188 C.ar    1  UNL1        0.1318
      4 C         140.7514  140.1534  162.2568 C.ar    1  UNL1        0.0491
      5 C         140.7793  139.0245  163.2441 C.ar    1  UNL1        0.0041
      6 C         141.4408  137.7278  162.8822 C.ar    1  UNL1        0.0002
      7 C         142.0742  137.5601  161.5329 C.ar    1  UNL1        0.0015
      8 C         142.0462  138.6890  160.5456 C.ar    1  UNL1        0.0192
      9 C         141.3848  139.9857  160.9076 C.ar    1  UNL1        0.0856
     10 N         141.3568  141.1146  159.9203 N.ar    1  UNL1       -0.2264
     11 C         140.6115  145.7980  157.3203 C.ar    1  UNL1        0.1342
     12 C         140.9446  144.4091  156.8622 C.ar    1  UNL1        0.0346
     13 C         140.9725  143.2802  157.8495 C.ar    1  UNL1        0.0075
     14 C         140.6674  143.5402  159.2949 C.ar    1  UNL1        0.0551
     15 C         140.3343  144.9292  159.7531 C.ar    1  UNL1        0.1033
     16 N         140.3064  146.0581  158.7658 N.ar    1  UNL1       -0.2289
     17 C         139.3732  148.2304  154.4393 C.3     1  UNL1        0.0950
     18 C         139.4012  147.1015  155.4266 C.2     1  UNL1        0.2277
     19 O         138.2468  146.1471  155.5076 O.2     1  UNL1       -0.2747
     20 N         140.5835  146.9269  156.3330 N.am    1  UNL1       -0.2693
     21 H         141.3412  147.5533  156.2799 H       1  UNL1        0.1563
     22 C         140.1458  139.1924  164.5934 C.ar    1  UNL1        0.0001
     23 C         138.6770  138.9437  164.7685 C.ar    1  UNL1        0.0000
     24 C         138.0435  139.1116  166.1179 C.ar    1  UNL1        0.0000
     25 C         138.8789  139.5280  167.2920 C.ar    1  UNL1        0.0000
     26 C         140.3478  139.7767  167.1169 C.ar    1  UNL1        0.0000
     27 C         140.9812  139.6088  165.7676 C.ar    1  UNL1        0.0000
     28 N         139.4564  141.6180  163.9681 N.pl3   1  UNL1       -0.3131
     29 H         138.7872  140.9677  164.2820 H       1  UNL1        0.1485
     30 C         139.8426  142.7765  164.8391 C.3     1  UNL1        0.1348
     31 C         141.1901  143.4164  164.6822 C.ar    1  UNL1        0.0788
     32 C         142.4126  142.7313  165.2172 C.ar    1  UNL1        0.0165
     33 C         143.7602  143.3712  165.0602 C.ar    1  UNL1        0.0029
     34 C         143.8853  144.6962  164.3683 C.ar    1  UNL1        0.0207
     35 C         142.6627  145.3813  163.8333 C.ar    1  UNL1        0.0985
     36 N         141.3152  144.7414  163.9902 N.ar    1  UNL1       -0.2464
@<TRIPOS>BOND
     1    17    18    1
     2    18    19    2
     3    18    20   am
     4    20    11    1
     5    11    12   ar
     6    12    13   ar
     7    13    14   ar
     8    14     1    1
     9     1     2   ar
    10     2     3   ar
    11     3    28    1
    12    28    30    1
    13    30    31    1
    14    31    32   ar
    15    32    33   ar
    16    33    34   ar
    17    34    35   ar
    18    35    36   ar
    19     3     4   ar
    20     4     5   ar
    21     5    22    1
    22    22    23   ar
    23    23    24   ar
    24    24    25   ar
    25    25    26   ar
    26    26    27   ar
    27     5     6   ar
    28     6     7   ar
    29     7     8   ar
    30     8     9   ar
    31     9    10   ar
    32    14    15   ar
    33    15    16   ar
    34    16    11   ar
    35    10     1   ar
    36    36    31   ar
    37     9     4   ar
    38    27    22   ar
    39    20    21    1
    40    28    29    1
