@<TRIPOS>MOLECULE
*****
 30 33 0 0 0
SMALL
GASTEIGER

@<TRIPOS>ATOM
      1 C         141.5632  142.4710  163.7451 C.ar    1  UNL1        0.1079
      2 N         142.8981  142.1109  163.1633 N.ar    1  UNL1       -0.1680
      3 N         143.1907  143.0686  162.0466 N.ar    1  UNL1       -0.2381
      4 C         142.0366  144.0207  161.9381 C.ar    1  UNL1        0.1281
      5 N         141.9105  145.1447  160.9529 N.pl3   1  UNL1       -0.3427
      6 C         141.0307  143.6514  162.9878 C.ar    1  UNL1        0.1031
      7 H         142.6279  145.3089  160.2990 H       1  UNL1        0.1437
      8 H         141.1104  145.7183  160.9603 H       1  UNL1        0.1437
      9 C         138.9269  140.2414  169.6888 C.ar    1  UNL1        0.1386
     10 C         139.7037  141.5002  169.9377 C.ar    1  UNL1        0.0369
     11 C         140.3863  142.1979  168.7988 C.ar    1  UNL1        0.0031
     12 C         140.2921  141.6368  167.4109 C.ar    1  UNL1        0.0002
     13 C         140.9747  142.3344  166.2719 C.ar    1  UNL1        0.0016
     14 C         140.8806  141.7733  164.8840 C.ar    1  UNL1        0.0196
     15 C         140.1037  140.5145  164.6351 C.ar    1  UNL1        0.0016
     16 C         139.4211  139.8168  165.7740 C.ar    1  UNL1        0.0001
     17 C         139.5153  140.3780  167.1620 C.ar    1  UNL1        0.0030
     18 C         138.8327  139.6803  168.3010 C.ar    1  UNL1        0.0369
     19 O         138.2442  139.5437  170.8278 O.3     1  UNL1       -0.4755
     20 C         136.1879  138.2015  171.6764 C.3     1  UNL1        0.0512
     21 C         136.7868  139.2019  170.7327 C.3     1  UNL1        0.2055
     22 C         139.7223  144.3412  163.2366 C.2     1  UNL1        0.2470
     23 N         139.5191  145.1333  164.4941 N.am    1  UNL1       -0.3252
     24 O         138.6168  144.2391  162.2278 O.2     1  UNL1       -0.2702
     25 H         140.2446  145.2004  165.1563 H       1  UNL1        0.1453
     26 H         138.6603  145.5860  164.6574 H       1  UNL1        0.1453
     27 C         144.4212  143.0735  161.1889 C.3     1  UNL1        0.1288
     28 C         144.3857  142.4549  159.8229 C.3     1  UNL1        0.0245
     29 C         143.9358  141.3569  158.9053 C.3     1  UNL1        0.0021
     30 C         144.7743  142.4815  158.3743 C.3     1  UNL1        0.0021
@<TRIPOS>BOND
     1    20    21    1
     2    21    19    1
     3    19     9    1
     4     9    10   ar
     5    10    11   ar
     6    11    12   ar
     7    12    13   ar
     8    13    14   ar
     9    14     1    1
    10     1     2   ar
    11     2     3   ar
    12     3    27    1
    13    27    28    1
    14    28    29    1
    15    29    30    1
    16     3     4   ar
    17     4     5    1
    18     4     6   ar
    19     6    22    1
    20    22    23   am
    21    22    24    2
    22    14    15   ar
    23    15    16   ar
    24    16    17   ar
    25    17    18   ar
    26    18     9   ar
    27    17    12   ar
    28     6     1   ar
    29    30    28    1
    30     5     7    1
    31     5     8    1
    32    23    25    1
    33    23    26    1
@<TRIPOS>MOLECULE
*****
 30 33 0 0 0
SMALL
GASTEIGER

@<TRIPOS>ATOM
      1 C         140.9950  139.4012  166.4307 C.ar    1  UNL1        0.1079
      2 N         141.9966  139.7452  167.4930 N.ar    1  UNL1       -0.1680
      3 N         141.2459  140.0695  168.7505 N.ar    1  UNL1       -0.2381
      4 C         139.7802  139.9258  168.4653 C.ar    1  UNL1        0.1281
      5 N         138.6653  140.1550  169.4423 N.pl3   1  UNL1       -0.3427
      6 C         139.6251  139.5129  167.0316 C.ar    1  UNL1        0.1031
      7 H         138.8688  140.4257  170.3668 H       1  UNL1        0.1437
      8 H         137.7302  140.0346  169.1591 H       1  UNL1        0.1437
      9 C         142.9728  138.8097  159.8741 C.ar    1  UNL1        0.1386
     10 C         143.3844  140.1561  160.3916 C.ar    1  UNL1        0.0369
     11 C         143.0712  140.5437  161.8064 C.ar    1  UNL1        0.0031
     12 C         142.3463  139.5849  162.7038 C.ar    1  UNL1        0.0002
     13 C         142.0331  139.9724  164.1186 C.ar    1  UNL1        0.0016
     14 C         141.3083  139.0137  165.0159 C.ar    1  UNL1        0.0196
     15 C         140.8965  137.6672  164.4984 C.ar    1  UNL1        0.0016
     16 C         141.2098  137.2797  163.0836 C.ar    1  UNL1        0.0001
     17 C         141.9347  138.2385  162.1863 C.ar    1  UNL1        0.0030
     18 C         142.2479  137.8510  160.7715 C.ar    1  UNL1        0.0369
     19 O         143.2860  138.4222  158.4593 O.3     1  UNL1       -0.4755
     20 C         142.8766  136.3467  156.9511 C.3     1  UNL1        0.0512
     21 C         142.3463  137.5336  157.6996 C.3     1  UNL1        0.2055
     22 C         138.3281  139.2565  166.3233 C.2     1  UNL1        0.2470
     23 N         137.9921  140.0172  165.0750 N.am    1  UNL1       -0.3252
     24 O         137.3668  138.2393  166.8633 O.2     1  UNL1       -0.2702
     25 H         138.6229  140.6848  164.7205 H       1  UNL1        0.1453
     26 H         137.1407  139.8489  164.6101 H       1  UNL1        0.1453
     27 C         141.8539  140.4674  170.0626 C.3     1  UNL1        0.1288
     28 C         142.7056  141.6989  170.1518 C.3     1  UNL1        0.0245
     29 C         144.0152  142.3923  169.9187 C.3     1  UNL1        0.0021
     30 C         142.8715  143.1384  170.5394 C.3     1  UNL1        0.0021
@<TRIPOS>BOND
     1    20    21    1
     2    21    19    1
     3    19     9    1
     4     9    10   ar
     5    10    11   ar
     6    11    12   ar
     7    12    13   ar
     8    13    14   ar
     9    14     1    1
    10     1     2   ar
    11     2     3   ar
    12     3    27    1
    13    27    28    1
    14    28    29    1
    15    29    30    1
    16     3     4   ar
    17     4     5    1
    18     4     6   ar
    19     6    22    1
    20    22    23   am
    21    22    24    2
    22    14    15   ar
    23    15    16   ar
    24    16    17   ar
    25    17    18   ar
    26    18     9   ar
    27    17    12   ar
    28     6     1   ar
    29    30    28    1
    30     5     7    1
    31     5     8    1
    32    23    25    1
    33    23    26    1
@<TRIPOS>MOLECULE
*****
 30 33 0 0 0
SMALL
GASTEIGER

@<TRIPOS>ATOM
      1 C         139.5451  140.6792  165.6567 C.ar    1  UNL1        0.1079
      2 N         140.3421  141.8149  166.2268 N.ar    1  UNL1       -0.1680
      3 N         140.3976  141.6408  167.7157 N.ar    1  UNL1       -0.2381
      4 C         139.6349  140.3975  168.0657 C.ar    1  UNL1        0.1281
      5 N         139.4343  139.8455  169.4459 N.pl3   1  UNL1       -0.3427
      6 C         139.1080  139.8032  166.7932 C.ar    1  UNL1        0.1031
      7 H         139.8215  140.3098  170.2229 H       1  UNL1        0.1437
      8 H         138.9154  139.0188  169.5748 H       1  UNL1        0.1437
      9 C         139.3152  139.0967  158.9715 C.ar    1  UNL1        0.1386
     10 C         140.6163  138.6187  159.5447 C.ar    1  UNL1        0.0369
     11 C         140.9225  138.8397  160.9964 C.ar    1  UNL1        0.0031
     12 C         139.9276  139.5385  161.8749 C.ar    1  UNL1        0.0002
     13 C         140.2338  139.7594  163.3266 C.ar    1  UNL1        0.0016
     14 C         139.2389  140.4583  164.2050 C.ar    1  UNL1        0.0196
     15 C         137.9377  140.9363  163.6318 C.ar    1  UNL1        0.0016
     16 C         137.6315  140.7154  162.1800 C.ar    1  UNL1        0.0001
     17 C         138.6265  140.0165  161.3016 C.ar    1  UNL1        0.0030
     18 C         138.3203  139.7956  159.8499 C.ar    1  UNL1        0.0369
     19 O         139.0090  138.8758  157.5197 O.3     1  UNL1       -0.4755
     20 C         139.1424  137.2494  155.4981 C.3     1  UNL1        0.0512
     21 C         139.7407  137.8152  156.7519 C.3     1  UNL1        0.2055
     22 C         138.2880  138.5526  166.6776 C.2     1  UNL1        0.2470
     23 N         138.5364  137.5943  165.5506 N.am    1  UNL1       -0.3252
     24 O         137.2195  138.2600  167.6890 O.2     1  UNL1       -0.2702
     25 H         139.2376  137.7863  164.8868 H       1  UNL1        0.1453
     26 H         137.9982  136.7735  165.4747 H       1  UNL1        0.1453
     27 C         141.0936  142.5503  168.6843 C.3     1  UNL1        0.1288
     28 C         142.3790  142.1197  169.3264 C.3     1  UNL1        0.0245
     29 C         143.7584  142.4450  169.8178 C.3     1  UNL1        0.0021
     30 C         143.2261  141.0486  169.9470 C.3     1  UNL1        0.0021
@<TRIPOS>BOND
     1    20    21    1
     2    21    19    1
     3    19     9    1
     4     9    10   ar
     5    10    11   ar
     6    11    12   ar
     7    12    13   ar
     8    13    14   ar
     9    14     1    1
    10     1     2   ar
    11     2     3   ar
    12     3    27    1
    13    27    28    1
    14    28    29    1
    15    29    30    1
    16     3     4   ar
    17     4     5    1
    18     4     6   ar
    19     6    22    1
    20    22    23   am
    21    22    24    2
    22    14    15   ar
    23    15    16   ar
    24    16    17   ar
    25    17    18   ar
    26    18     9   ar
    27    17    12   ar
    28     6     1   ar
    29    30    28    1
    30     5     7    1
    31     5     8    1
    32    23    25    1
    33    23    26    1
@<TRIPOS>MOLECULE
*****
 30 33 0 0 0
SMALL
GASTEIGER

@<TRIPOS>ATOM
      1 C         139.7431  142.1772  164.8250 C.ar    1  UNL1        0.1079
      2 N         140.3858  142.4070  166.1607 N.ar    1  UNL1       -0.1680
      3 N         139.9610  141.2976  167.0766 N.ar    1  UNL1       -0.2381
      4 C         139.0558  140.3821  166.3069 C.ar    1  UNL1        0.1281
      5 N         138.4003  139.1409  166.8359 N.pl3   1  UNL1       -0.3427
      6 C         138.9211  140.9257  164.9153 C.ar    1  UNL1        0.1031
      7 H         138.5505  138.8643  167.7687 H       1  UNL1        0.1437
      8 H         137.8199  138.6030  166.2502 H       1  UNL1        0.1437
      9 C         141.2721  145.2370  158.8627 C.ar    1  UNL1        0.1386
     10 C         142.0385  143.9517  158.9656 C.ar    1  UNL1        0.0369
     11 C         141.8859  143.0827  160.1787 C.ar    1  UNL1        0.0031
     12 C         140.9671  143.4990  161.2888 C.ar    1  UNL1        0.0002
     13 C         140.8145  142.6299  162.5019 C.ar    1  UNL1        0.0016
     14 C         139.8957  143.0462  163.6119 C.ar    1  UNL1        0.0196
     15 C         139.1293  144.3316  163.5090 C.ar    1  UNL1        0.0016
     16 C         139.2818  145.2006  162.2959 C.ar    1  UNL1        0.0001
     17 C         140.2007  144.7843  161.1858 C.ar    1  UNL1        0.0030
     18 C         140.3533  145.6533  159.9728 C.ar    1  UNL1        0.0369
     19 O         141.4247  146.1061  157.6496 O.3     1  UNL1       -0.4755
     20 C         139.3720  147.0597  156.3740 C.3     1  UNL1        0.0512
     21 C         140.4325  146.0102  156.5288 C.3     1  UNL1        0.2055
     22 C         138.1073  140.3236  163.8085 C.2     1  UNL1        0.2470
     23 N         136.9647  141.0922  163.2139 N.am    1  UNL1       -0.3252
     24 O         138.4361  138.9526  163.2961 O.2     1  UNL1       -0.2702
     25 H         136.7489  141.9920  163.5501 H       1  UNL1        0.1453
     26 H         136.4306  140.6970  162.4874 H       1  UNL1        0.1453
     27 C         140.3697  141.1326  168.5103 C.3     1  UNL1        0.1288
     28 C         140.2823  142.2955  169.4537 C.3     1  UNL1        0.0245
     29 C         139.7190  142.9219  170.6948 C.3     1  UNL1        0.0021
     30 C         140.6940  143.6833  169.8466 C.3     1  UNL1        0.0021
@<TRIPOS>BOND
     1    20    21    1
     2    21    19    1
     3    19     9    1
     4     9    10   ar
     5    10    11   ar
     6    11    12   ar
     7    12    13   ar
     8    13    14   ar
     9    14     1    1
    10     1     2   ar
    11     2     3   ar
    12     3    27    1
    13    27    28    1
    14    28    29    1
    15    29    30    1
    16     3     4   ar
    17     4     5    1
    18     4     6   ar
    19     6    22    1
    20    22    23   am
    21    22    24    2
    22    14    15   ar
    23    15    16   ar
    24    16    17   ar
    25    17    18   ar
    26    18     9   ar
    27    17    12   ar
    28     6     1   ar
    29    30    28    1
    30     5     7    1
    31     5     8    1
    32    23    25    1
    33    23    26    1
@<TRIPOS>MOLECULE
*****
 30 33 0 0 0
SMALL
GASTEIGER

@<TRIPOS>ATOM
      1 C         141.5783  142.6023  163.8863 C.ar    1  UNL1        0.1079
      2 N         140.8977  143.1992  162.6903 N.ar    1  UNL1       -0.1680
      3 N         141.9492  143.8257  161.8231 N.ar    1  UNL1       -0.2381
      4 C         143.2797  143.6159  162.4832 C.ar    1  UNL1        0.1281
      5 N         144.6065  144.0806  161.9601 N.pl3   1  UNL1       -0.3427
      6 C         143.0506  142.8598  163.7583 C.ar    1  UNL1        0.1031
      7 H         144.6551  144.5724  161.1086 H       1  UNL1        0.1437
      8 H         145.4288  143.8938  162.4682 H       1  UNL1        0.1437
      9 C         138.9214  140.2635  169.7787 C.ar    1  UNL1        0.1386
     10 C         139.6311  141.5588  170.0401 C.ar    1  UNL1        0.0369
     11 C         140.3044  142.2857  168.9138 C.ar    1  UNL1        0.0031
     12 C         140.2681  141.7171  167.5263 C.ar    1  UNL1        0.0002
     13 C         140.9414  142.4440  166.4001 C.ar    1  UNL1        0.0016
     14 C         140.9050  141.8755  165.0125 C.ar    1  UNL1        0.0196
     15 C         140.1953  140.5800  164.7511 C.ar    1  UNL1        0.0016
     16 C         139.5220  139.8532  165.8773 C.ar    1  UNL1        0.0001
     17 C         139.5584  140.4218  167.2649 C.ar    1  UNL1        0.0030
     18 C         138.8851  139.6949  168.3911 C.ar    1  UNL1        0.0369
     19 O         138.2481  139.5366  170.9049 O.3     1  UNL1       -0.4755
     20 C         136.2216  138.1138  171.6913 C.3     1  UNL1        0.0512
     21 C         136.7950  139.1786  170.8040 C.3     1  UNL1        0.2055
     22 C         144.1079  142.4357  164.7341 C.2     1  UNL1        0.2470
     23 N         144.6888  141.0549  164.6575 N.am    1  UNL1       -0.3252
     24 O         144.5844  143.3924  165.7866 O.2     1  UNL1       -0.2702
     25 H         144.3761  140.4269  163.9667 H       1  UNL1        0.1453
     26 H         145.3828  140.7766  165.2980 H       1  UNL1        0.1453
     27 C         141.7119  144.5370  160.5241 C.3     1  UNL1        0.1288
     28 C         142.0988  143.8844  159.2301 C.3     1  UNL1        0.0245
     29 C         141.8128  142.8995  158.1355 C.3     1  UNL1        0.0021
     30 C         143.0548  143.7390  158.0834 C.3     1  UNL1        0.0021
@<TRIPOS>BOND
     1    20    21    1
     2    21    19    1
     3    19     9    1
     4     9    10   ar
     5    10    11   ar
     6    11    12   ar
     7    12    13   ar
     8    13    14   ar
     9    14     1    1
    10     1     2   ar
    11     2     3   ar
    12     3    27    1
    13    27    28    1
    14    28    29    1
    15    29    30    1
    16     3     4   ar
    17     4     5    1
    18     4     6   ar
    19     6    22    1
    20    22    23   am
    21    22    24    2
    22    14    15   ar
    23    15    16   ar
    24    16    17   ar
    25    17    18   ar
    26    18     9   ar
    27    17    12   ar
    28     6     1   ar
    29    30    28    1
    30     5     7    1
    31     5     8    1
    32    23    25    1
    33    23    26    1
@<TRIPOS>MOLECULE
*****
 30 33 0 0 0
SMALL
GASTEIGER

@<TRIPOS>ATOM
      1 C         142.4562  140.9032  165.6658 C.ar    1  UNL1        0.1079
      2 N         142.0458  140.9335  167.1082 N.ar    1  UNL1       -0.1680
      3 N         142.5980  139.7075  167.7731 N.ar    1  UNL1       -0.2381
      4 C         143.3497  138.9195  166.7416 C.ar    1  UNL1        0.1281
      5 N         144.0637  137.6207  166.9720 N.pl3   1  UNL1       -0.3427
      6 C         143.2621  139.6585  165.4391 C.ar    1  UNL1        0.1031
      7 H         144.0648  137.2116  167.8675 H       1  UNL1        0.1437
      8 H         144.5313  137.1772  166.2278 H       1  UNL1        0.1437
      9 C         140.1912  144.6898  160.3949 C.ar    1  UNL1        0.1386
     10 C         139.6082  143.3113  160.2955 C.ar    1  UNL1        0.0369
     11 C         139.9446  142.2783  161.3298 C.ar    1  UNL1        0.0031
     12 C         140.8640  142.6238  162.4635 C.ar    1  UNL1        0.0002
     13 C         141.2004  141.5908  163.4978 C.ar    1  UNL1        0.0016
     14 C         142.1198  141.9362  164.6315 C.ar    1  UNL1        0.0196
     15 C         142.7029  143.3147  164.7309 C.ar    1  UNL1        0.0016
     16 C         142.3665  144.3477  163.6966 C.ar    1  UNL1        0.0001
     17 C         141.4470  144.0022  162.5629 C.ar    1  UNL1        0.0030
     18 C         141.1106  145.0352  161.5286 C.ar    1  UNL1        0.0369
     19 O         139.8548  145.7228  159.3607 O.3     1  UNL1       -0.4755
     20 C         139.9113  146.4360  156.8631 C.3     1  UNL1        0.0512
     21 C         140.5023  145.6690  158.0087 C.3     1  UNL1        0.2055
     22 C         143.8731  139.2283  164.1386 C.2     1  UNL1        0.2470
     23 N         145.2262  139.7386  163.7403 N.am    1  UNL1       -0.3252
     24 O         143.1309  138.2877  163.2360 O.2     1  UNL1       -0.2702
     25 H         145.7134  140.3559  164.3326 H       1  UNL1        0.1453
     26 H         145.6271  139.4562  162.8867 H       1  UNL1        0.1453
     27 C         142.4284  139.3350  169.2161 C.3     1  UNL1        0.1288
     28 C         141.3326  139.9593  170.0281 C.3     1  UNL1        0.0245
     29 C         139.8728  140.2106  170.2645 C.3     1  UNL1        0.0021
     30 C         140.8943  140.7894  171.1981 C.3     1  UNL1        0.0021
@<TRIPOS>BOND
     1    20    21    1
     2    21    19    1
     3    19     9    1
     4     9    10   ar
     5    10    11   ar
     6    11    12   ar
     7    12    13   ar
     8    13    14   ar
     9    14     1    1
    10     1     2   ar
    11     2     3   ar
    12     3    27    1
    13    27    28    1
    14    28    29    1
    15    29    30    1
    16     3     4   ar
    17     4     5    1
    18     4     6   ar
    19     6    22    1
    20    22    23   am
    21    22    24    2
    22    14    15   ar
    23    15    16   ar
    24    16    17   ar
    25    17    18   ar
    26    18     9   ar
    27    17    12   ar
    28     6     1   ar
    29    30    28    1
    30     5     7    1
    31     5     8    1
    32    23    25    1
    33    23    26    1
@<TRIPOS>MOLECULE
*****
 30 33 0 0 0
SMALL
GASTEIGER

@<TRIPOS>ATOM
      1 C         141.6458  143.0355  162.0839 C.ar    1  UNL1        0.1079
      2 N         142.7262  142.4442  161.2278 N.ar    1  UNL1       -0.1680
      3 N         142.8172  143.2561  159.9698 N.ar    1  UNL1       -0.2381
      4 C         141.7931  144.3492  160.0485 C.ar    1  UNL1        0.1281
      5 N         141.5378  145.3951  159.0040 N.pl3   1  UNL1       -0.3427
      6 C         141.0691  144.2130  161.3551 C.ar    1  UNL1        0.1031
      7 H         142.0681  145.4022  158.1746 H       1  UNL1        0.1437
      8 H         140.8399  146.0744  159.1479 H       1  UNL1        0.1437
      9 C         138.9357  139.9248  167.5820 C.ar    1  UNL1        0.1386
     10 C         138.3681  139.3068  166.3387 C.ar    1  UNL1        0.0369
     11 C         138.7966  139.8053  164.9905 C.ar    1  UNL1        0.0031
     12 C         139.7927  140.9219  164.8855 C.ar    1  UNL1        0.0002
     13 C         140.2212  141.4204  163.5372 C.ar    1  UNL1        0.0016
     14 C         141.2173  142.5370  163.4322 C.ar    1  UNL1        0.0196
     15 C         141.7849  143.1551  164.6756 C.ar    1  UNL1        0.0016
     16 C         141.3564  142.6566  166.0238 C.ar    1  UNL1        0.0001
     17 C         140.3603  141.5399  166.1288 C.ar    1  UNL1        0.0030
     18 C         139.9318  141.0414  167.4771 C.ar    1  UNL1        0.0369
     19 O         138.5072  139.4263  168.9303 O.3     1  UNL1       -0.4755
     20 C         140.2772  140.0743  170.7184 C.3     1  UNL1        0.0512
     21 C         138.8869  140.1864  170.1664 C.3     1  UNL1        0.2055
     22 C         139.9627  145.0985  161.8466 C.2     1  UNL1        0.2470
     23 N         140.2786  146.4559  162.4013 N.am    1  UNL1       -0.3252
     24 O         138.5401  144.6267  161.7834 O.2     1  UNL1       -0.2702
     25 H         141.2122  146.7656  162.4429 H       1  UNL1        0.1453
     26 H         139.5524  147.0370  162.7239 H       1  UNL1        0.1453
     27 C         143.7658  143.0169  158.8328 C.3     1  UNL1        0.1288
     28 C         143.9643  141.6285  158.3010 C.3     1  UNL1        0.0245
     29 C         144.5530  140.7002  157.2804 C.3     1  UNL1        0.0021
     30 C         143.7196  140.1520  158.4006 C.3     1  UNL1        0.0021
@<TRIPOS>BOND
     1    20    21    1
     2    21    19    1
     3    19     9    1
     4     9    10   ar
     5    10    11   ar
     6    11    12   ar
     7    12    13   ar
     8    13    14   ar
     9    14     1    1
    10     1     2   ar
    11     2     3   ar
    12     3    27    1
    13    27    28    1
    14    28    29    1
    15    29    30    1
    16     3     4   ar
    17     4     5    1
    18     4     6   ar
    19     6    22    1
    20    22    23   am
    21    22    24    2
    22    14    15   ar
    23    15    16   ar
    24    16    17   ar
    25    17    18   ar
    26    18     9   ar
    27    17    12   ar
    28     6     1   ar
    29    30    28    1
    30     5     7    1
    31     5     8    1
    32    23    25    1
    33    23    26    1
@<TRIPOS>MOLECULE
*****
 30 33 0 0 0
SMALL
GASTEIGER

@<TRIPOS>ATOM
      1 C         140.6578  139.4986  166.2506 C.ar    1  UNL1        0.1079
      2 N         139.7083  140.0067  167.2947 N.ar    1  UNL1       -0.1680
      3 N         140.4840  140.2252  168.5598 N.ar    1  UNL1       -0.2381
      4 C         141.9130  139.8520  168.2976 C.ar    1  UNL1        0.1281
      5 N         143.0373  139.9166  169.2885 N.pl3   1  UNL1       -0.3427
      6 C         142.0205  139.4030  166.8704 C.ar    1  UNL1        0.1031
      7 H         142.8665  140.2266  170.2072 H       1  UNL1        0.1437
      8 H         143.9459  139.6490  169.0202 H       1  UNL1        0.1437
      9 C         139.6137  139.0293  159.4727 C.ar    1  UNL1        0.1386
     10 C         140.3265  140.3147  159.7719 C.ar    1  UNL1        0.0369
     11 C         140.6779  140.6657  161.1873 C.ar    1  UNL1        0.0031
     12 C         140.3165  139.7312  162.3035 C.ar    1  UNL1        0.0002
     13 C         140.6679  140.0821  163.7189 C.ar    1  UNL1        0.0016
     14 C         140.3064  139.1477  164.8352 C.ar    1  UNL1        0.0196
     15 C         139.5935  137.8622  164.5361 C.ar    1  UNL1        0.0016
     16 C         139.2421  137.5112  163.1207 C.ar    1  UNL1        0.0001
     17 C         139.6036  138.4458  162.0044 C.ar    1  UNL1        0.0030
     18 C         139.2522  138.0949  160.5890 C.ar    1  UNL1        0.0369
     19 O         139.2623  138.6784  158.0573 O.3     1  UNL1       -0.4755
     20 C         140.7455  139.5276  156.1006 C.3     1  UNL1        0.0512
     21 C         140.3494  138.4379  157.0522 C.3     1  UNL1        0.2055
     22 C         143.2709  138.9397  166.1836 C.2     1  UNL1        0.2470
     23 N         144.0156  137.7470  166.7060 N.am    1  UNL1       -0.3252
     24 O         143.7767  139.6691  164.9743 O.2     1  UNL1       -0.2702
     25 H         143.6838  137.2683  167.4996 H       1  UNL1        0.1453
     26 H         144.8364  137.4430  166.2552 H       1  UNL1        0.1453
     27 C         139.9285  140.7284  169.8590 C.3     1  UNL1        0.1288
     28 C         139.9013  142.2010  170.1430 C.3     1  UNL1        0.0245
     29 C         139.4426  143.3530  170.9871 C.3     1  UNL1        0.0021
     30 C         140.3130  143.5997  169.7907 C.3     1  UNL1        0.0021
@<TRIPOS>BOND
     1    20    21    1
     2    21    19    1
     3    19     9    1
     4     9    10   ar
     5    10    11   ar
     6    11    12   ar
     7    12    13   ar
     8    13    14   ar
     9    14     1    1
    10     1     2   ar
    11     2     3   ar
    12     3    27    1
    13    27    28    1
    14    28    29    1
    15    29    30    1
    16     3     4   ar
    17     4     5    1
    18     4     6   ar
    19     6    22    1
    20    22    23   am
    21    22    24    2
    22    14    15   ar
    23    15    16   ar
    24    16    17   ar
    25    17    18   ar
    26    18     9   ar
    27    17    12   ar
    28     6     1   ar
    29    30    28    1
    30     5     7    1
    31     5     8    1
    32    23    25    1
    33    23    26    1
@<TRIPOS>MOLECULE
*****
 30 33 0 0 0
SMALL
GASTEIGER

@<TRIPOS>ATOM
      1 C         142.4916  143.5004  161.8147 C.ar    1  UNL1        0.1079
      2 N         143.3639  142.9668  160.7174 N.ar    1  UNL1       -0.1680
      3 N         142.8693  143.5284  159.4174 N.ar    1  UNL1       -0.2381
      4 C         141.6912  144.4091  159.7113 C.ar    1  UNL1        0.1281
      5 N         140.8876  145.1730  158.7010 N.pl3   1  UNL1       -0.3427
      6 C         141.4577  144.3918  161.1930 C.ar    1  UNL1        0.1031
      7 H         141.1197  145.1204  157.7457 H       1  UNL1        0.1437
      8 H         140.1280  145.7269  158.9932 H       1  UNL1        0.1437
      9 C         141.8422  141.8526  168.4565 C.ar    1  UNL1        0.1386
     10 C         140.5061  141.7266  167.7864 C.ar    1  UNL1        0.0369
     11 C         140.3688  142.0309  166.3241 C.ar    1  UNL1        0.0031
     12 C         141.5675  142.4613  165.5318 C.ar    1  UNL1        0.0002
     13 C         141.4302  142.7657  164.0694 C.ar    1  UNL1        0.0016
     14 C         142.6289  143.1960  163.2771 C.ar    1  UNL1        0.0196
     15 C         143.9650  143.3221  163.9472 C.ar    1  UNL1        0.0016
     16 C         144.1024  143.0177  165.4095 C.ar    1  UNL1        0.0001
     17 C         142.9036  142.5873  166.2018 C.ar    1  UNL1        0.0030
     18 C         143.0409  142.2830  167.6642 C.ar    1  UNL1        0.0369
     19 O         141.9795  141.5483  169.9189 O.3     1  UNL1       -0.4755
     20 C         142.5010  139.0033  169.9545 C.3     1  UNL1        0.0512
     21 C         142.8391  140.4046  170.3694 C.3     1  UNL1        0.2055
     22 C         140.3797  145.1353  161.9244 C.2     1  UNL1        0.2470
     23 N         140.7336  146.3018  162.7985 N.am    1  UNL1       -0.3252
     24 O         138.9475  144.7124  161.7817 O.2     1  UNL1       -0.2702
     25 H         141.6735  146.5794  162.8922 H       1  UNL1        0.1453
     26 H         140.0260  146.7897  163.2785 H       1  UNL1        0.1453
     27 C         143.4506  143.2570  158.0616 C.3     1  UNL1        0.1288
     28 C         142.6794  142.4451  157.0637 C.3     1  UNL1        0.0245
     29 C         141.4085  142.1727  156.3148 C.3     1  UNL1        0.0021
     30 C         142.6143  141.3110  156.0840 C.3     1  UNL1        0.0021
@<TRIPOS>BOND
     1    20    21    1
     2    21    19    1
     3    19     9    1
     4     9    10   ar
     5    10    11   ar
     6    11    12   ar
     7    12    13   ar
     8    13    14   ar
     9    14     1    1
    10     1     2   ar
    11     2     3   ar
    12     3    27    1
    13    27    28    1
    14    28    29    1
    15    29    30    1
    16     3     4   ar
    17     4     5    1
    18     4     6   ar
    19     6    22    1
    20    22    23   am
    21    22    24    2
    22    14    15   ar
    23    15    16   ar
    24    16    17   ar
    25    17    18   ar
    26    18     9   ar
    27    17    12   ar
    28     6     1   ar
    29    30    28    1
    30     5     7    1
    31     5     8    1
    32    23    25    1
    33    23    26    1
