@<TRIPOS>MOLECULE
*****
 25 26 0 0 0
SMALL
GASTEIGER

@<TRIPOS>ATOM
      1 C         143.9497  143.0733  163.7241 C.3     1  UNL1        0.0231
      2 C         144.0924  144.4505  163.1472 C.3     1  UNL1        0.0019
      3 C         141.3877  142.4129  167.3641 C.3     1  UNL1        0.0754
      4 C         142.8818  142.3420  167.4757 C.3     1  UNL1        0.0198
      5 C         143.7358  142.5622  166.2624 C.3     1  UNL1        0.0018
      6 C         143.0957  142.8531  164.9374 C.3     1  UNL1        0.0019
      7 C         141.6016  142.9240  164.8258 C.3     1  UNL1        0.0018
      8 C         140.7476  142.7039  166.0392 C.3     1  UNL1        0.0198
      9 C         139.0196  140.6441  170.0124 C.3     1  UNL1        0.0948
     10 C         139.8735  140.8642  168.7990 C.2     1  UNL1        0.2261
     11 O         140.0674  139.7557  167.8072 O.2     1  UNL1       -0.2749
     12 N         140.5337  142.1928  168.5775 N.am    1  UNL1       -0.2794
     13 C         140.3398  143.3012  169.5693 C.3     1  UNL1        0.1148
     14 C         144.6610  141.9162  163.0876 C.3     1  UNL1        0.1285
     15 N         146.1517  141.7960  163.2045 N.3     1  UNL1       -0.3150
     16 H         146.4644  140.9566  162.7166 H       1  UNL1        0.1192
     17 H         146.4116  141.7338  164.1889 H       1  UNL1        0.1192
     18 C         143.8818  140.8792  162.3343 C.2     1  UNL1        0.2397
     19 O         143.7691  140.9638  160.8410 O.2     1  UNL1       -0.2734
     20 N         143.2152  139.7576  163.0744 N.am    1  UNL1       -0.2756
     21 C         143.2399  139.5431  164.5588 C.3     1  UNL1        0.0964
     22 C         142.4468  138.3065  164.8618 C.3     1  UNL1        0.0585
     23 C         141.9319  137.7567  163.5646 C.3     1  UNL1        0.1824
     24 F         141.0899  136.5261  163.4009 F       1  UNL1       -0.2354
     25 C         142.4067  138.6535  162.4600 C.3     1  UNL1        0.1286
@<TRIPOS>BOND
     1     9    10    1
     2    10    11    2
     3    10    12   am
     4    12    13    1
     5    12     3    1
     6     3     4    1
     7     4     5    1
     8     5     6    1
     9     6     1    1
    10     1     2    1
    11     1    14    1
    12    14    15    1
    13    14    18    1
    14    18    19    2
    15    18    20   am
    16    20    21    1
    17    21    22    1
    18    22    23    1
    19    23    24    1
    20    23    25    1
    21     6     7    1
    22     7     8    1
    23     8     3    1
    24    25    20    1
    25    15    16    1
    26    15    17    1
@<TRIPOS>MOLECULE
*****
 25 26 0 0 0
SMALL
GASTEIGER

@<TRIPOS>ATOM
      1 C         138.0158  140.7816  163.5420 C.3     1  UNL1        0.0231
      2 C         137.3015  142.0617  163.2244 C.3     1  UNL1        0.0019
      3 C         139.9608  140.2279  167.5621 C.3     1  UNL1        0.0754
      4 C         140.4717  141.2772  166.6198 C.3     1  UNL1        0.0198
      5 C         139.8234  141.4617  165.2798 C.3     1  UNL1        0.0018
      6 C         138.6641  140.5970  164.8820 C.3     1  UNL1        0.0019
      7 C         138.1532  139.5477  165.8243 C.3     1  UNL1        0.0018
      8 C         138.8015  139.3632  167.1643 C.3     1  UNL1        0.0198
      9 C         142.6671  139.3539  170.3301 C.3     1  UNL1        0.0948
     10 C         142.0188  139.5385  168.9901 C.2     1  UNL1        0.2261
     11 O         142.7802  139.2181  167.7380 O.2     1  UNL1       -0.2749
     12 N         140.6091  140.0433  168.9021 N.am    1  UNL1       -0.2794
     13 C         139.8477  140.3637  170.1541 C.3     1  UNL1        0.1148
     14 C         138.0819  139.6860  162.5196 C.3     1  UNL1        0.1285
     15 N         137.1620  139.7092  161.3349 N.3     1  UNL1       -0.3150
     16 H         137.3429  138.8948  160.7480 H       1  UNL1        0.1192
     17 H         137.3237  140.5597  160.7956 H       1  UNL1        0.1192
     18 C         139.0679  138.5673  162.6818 C.2     1  UNL1        0.2397
     19 O         138.6263  137.2567  163.2627 O.2     1  UNL1       -0.2734
     20 N         140.4955  138.7591  162.2631 N.am    1  UNL1       -0.2756
     21 C         141.0803  140.0065  161.6699 C.3     1  UNL1        0.0964
     22 C         142.5351  139.7555  161.4042 C.3     1  UNL1        0.0585
     23 C         142.8494  138.3529  161.8332 C.3     1  UNL1        0.1824
     24 F         144.1890  137.6836  161.7467 F       1  UNL1       -0.2354
     25 C         141.5888  137.7371  162.3640 C.3     1  UNL1        0.1286
@<TRIPOS>BOND
     1     9    10    1
     2    10    11    2
     3    10    12   am
     4    12    13    1
     5    12     3    1
     6     3     4    1
     7     4     5    1
     8     5     6    1
     9     6     1    1
    10     1     2    1
    11     1    14    1
    12    14    15    1
    13    14    18    1
    14    18    19    2
    15    18    20   am
    16    20    21    1
    17    21    22    1
    18    22    23    1
    19    23    24    1
    20    23    25    1
    21     6     7    1
    22     7     8    1
    23     8     3    1
    24    25    20    1
    25    15    16    1
    26    15    17    1
@<TRIPOS>MOLECULE
*****
 25 26 0 0 0
SMALL
GASTEIGER

@<TRIPOS>ATOM
      1 C         144.3538  140.4986  163.6122 C.3     1  UNL1        0.0231
      2 C         145.5392  141.3830  163.3623 C.3     1  UNL1        0.0019
      3 C         142.5461  140.2677  167.7266 C.3     1  UNL1        0.0754
      4 C         142.7426  141.6007  167.0675 C.3     1  UNL1        0.0198
      5 C         143.3452  141.6776  165.6960 C.3     1  UNL1        0.0018
      6 C         143.7512  140.4216  164.9837 C.3     1  UNL1        0.0019
      7 C         143.5547  139.0886  165.6428 C.3     1  UNL1        0.0018
      8 C         142.9521  139.0117  167.0143 C.3     1  UNL1        0.0198
      9 C         139.8549  139.9870  170.6299 C.3     1  UNL1        0.0948
     10 C         140.4575  140.0640  169.2584 C.2     1  UNL1        0.2261
     11 O         139.5740  140.0142  168.0471 O.2     1  UNL1       -0.2749
     12 N         141.9435  140.1907  169.0981 N.am    1  UNL1       -0.2794
     13 C         142.8269  140.2405  170.3093 C.3     1  UNL1        0.1148
     14 C         143.7710  139.6910  162.4905 C.3     1  UNL1        0.1285
     15 N         144.5099  138.4968  161.9633 N.3     1  UNL1       -0.3150
     16 H         143.9725  138.0704  161.2086 H       1  UNL1        0.1192
     17 H         144.6394  137.8185  162.7139 H       1  UNL1        0.1192
     18 C         142.4492  140.0777  161.8960 C.2     1  UNL1        0.2397
     19 O         142.3509  141.2795  161.0040 O.2     1  UNL1       -0.2734
     20 N         141.2258  139.2623  162.1935 N.am    1  UNL1       -0.2756
     21 C         141.1700  138.0411  163.0627 C.3     1  UNL1        0.0964
     22 C         139.7531  137.5491  163.0805 C.3     1  UNL1        0.0585
     23 C         138.9331  138.4663  162.2222 C.3     1  UNL1        0.1824
     24 F         137.4614  138.3458  161.9584 F       1  UNL1       -0.2354
     25 C         139.8433  139.5251  161.6741 C.3     1  UNL1        0.1286
@<TRIPOS>BOND
     1     9    10    1
     2    10    11    2
     3    10    12   am
     4    12    13    1
     5    12     3    1
     6     3     4    1
     7     4     5    1
     8     5     6    1
     9     6     1    1
    10     1     2    1
    11     1    14    1
    12    14    15    1
    13    14    18    1
    14    18    19    2
    15    18    20   am
    16    20    21    1
    17    21    22    1
    18    22    23    1
    19    23    24    1
    20    23    25    1
    21     6     7    1
    22     7     8    1
    23     8     3    1
    24    25    20    1
    25    15    16    1
    26    15    17    1
@<TRIPOS>MOLECULE
*****
 25 26 0 0 0
SMALL
GASTEIGER

@<TRIPOS>ATOM
      1 C         144.3907  142.0560  163.8780 C.3     1  UNL1        0.0231
      2 C         145.7878  141.6264  163.5413 C.3     1  UNL1        0.0019
      3 C         142.5575  140.8670  167.8120 C.3     1  UNL1        0.0754
      4 C         142.7469  139.8427  166.7327 C.3     1  UNL1        0.0198
      5 C         143.3580  140.2390  165.4214 C.3     1  UNL1        0.0018
      6 C         143.7797  141.6596  165.1894 C.3     1  UNL1        0.0019
      7 C         143.5903  142.6840  166.2686 C.3     1  UNL1        0.0018
      8 C         142.9792  142.2876  167.5799 C.3     1  UNL1        0.0198
      9 C         139.8454  139.9606  170.5638 C.3     1  UNL1        0.0948
     10 C         140.4564  140.3569  169.2525 C.2     1  UNL1        0.2261
     11 O         139.5773  140.6395  168.0703 O.2     1  UNL1       -0.2749
     12 N         141.9465  140.4707  169.1233 N.am    1  UNL1       -0.2794
     13 C         142.8255  140.1881  170.3054 C.3     1  UNL1        0.1148
     14 C         143.6046  142.8819  162.9035 C.3     1  UNL1        0.1285
     15 N         144.2220  144.1006  162.2840 N.3     1  UNL1       -0.3150
     16 H         143.5515  144.5372  161.6513 H       1  UNL1        0.1192
     17 H         145.0561  143.8314  161.7623 H       1  UNL1        0.1192
     18 C         142.2012  142.4892  162.5483 C.2     1  UNL1        0.2397
     19 O         141.9577  141.3652  161.5855 O.2     1  UNL1       -0.2734
     20 N         141.0411  143.2207  163.1561 N.am    1  UNL1       -0.2756
     21 C         141.1285  144.3591  164.1289 C.3     1  UNL1        0.0964
     22 C         139.7315  144.7842  164.4717 C.3     1  UNL1        0.0585
     23 C         138.7806  143.9084  163.7108 C.3     1  UNL1        0.1824
     24 F         137.2832  143.9854  163.7552 F       1  UNL1       -0.2354
     25 C         139.5900  142.9422  162.8977 C.3     1  UNL1        0.1286
@<TRIPOS>BOND
     1     9    10    1
     2    10    11    2
     3    10    12   am
     4    12    13    1
     5    12     3    1
     6     3     4    1
     7     4     5    1
     8     5     6    1
     9     6     1    1
    10     1     2    1
    11     1    14    1
    12    14    15    1
    13    14    18    1
    14    18    19    2
    15    18    20   am
    16    20    21    1
    17    21    22    1
    18    22    23    1
    19    23    24    1
    20    23    25    1
    21     6     7    1
    22     7     8    1
    23     8     3    1
    24    25    20    1
    25    15    16    1
    26    15    17    1
@<TRIPOS>MOLECULE
*****
 25 26 0 0 0
SMALL
GASTEIGER

@<TRIPOS>ATOM
      1 C         144.0033  143.1527  163.5048 C.3     1  UNL1        0.0231
      2 C         144.0118  144.6289  163.2389 C.3     1  UNL1        0.0019
      3 C         141.1587  141.4287  166.5356 C.3     1  UNL1        0.0754
      4 C         140.7457  142.6075  165.7050 C.3     1  UNL1        0.0198
      5 C         141.6940  143.1822  164.6947 C.3     1  UNL1        0.0018
      6 C         143.0551  142.5780  164.5150 C.3     1  UNL1        0.0019
      7 C         143.4680  141.3993  165.3456 C.3     1  UNL1        0.0018
      8 C         142.5198  140.8246  166.3559 C.3     1  UNL1        0.0198
      9 C         139.2373  140.8213  169.9545 C.3     1  UNL1        0.0948
     10 C         140.1855  141.3960  168.9443 C.2     1  UNL1        0.2261
     11 O         141.1087  142.5127  169.3325 O.2     1  UNL1       -0.2749
     12 N         140.2105  140.8540  167.5459 N.am    1  UNL1       -0.2794
     13 C         139.2872  139.7374  167.1577 C.3     1  UNL1        0.1148
     14 C         144.9430  142.2512  162.7604 C.3     1  UNL1        0.1285
     15 N         146.2626  141.8772  163.3678 N.3     1  UNL1       -0.3150
     16 H         146.7689  141.2634  162.7296 H       1  UNL1        0.1192
     17 H         146.1050  141.3931  164.2517 H       1  UNL1        0.1192
     18 C         144.5632  141.7236  161.4085 C.2     1  UNL1        0.2397
     19 O         144.6180  142.6235  160.2098 O.2     1  UNL1       -0.2734
     20 N         144.1286  140.2961  161.2555 N.am    1  UNL1       -0.2756
     21 C         144.0250  139.2831  162.3569 C.3     1  UNL1        0.0964
     22 C         143.5537  137.9920  161.7564 C.3     1  UNL1        0.0585
     23 C         143.3660  138.2069  160.2837 C.3     1  UNL1        0.1824
     24 F         142.9041  137.1784  159.2943 F       1  UNL1       -0.2354
     25 C         143.7214  139.6310  159.9742 C.3     1  UNL1        0.1286
@<TRIPOS>BOND
     1     9    10    1
     2    10    11    2
     3    10    12   am
     4    12    13    1
     5    12     3    1
     6     3     4    1
     7     4     5    1
     8     5     6    1
     9     6     1    1
    10     1     2    1
    11     1    14    1
    12    14    15    1
    13    14    18    1
    14    18    19    2
    15    18    20   am
    16    20    21    1
    17    21    22    1
    18    22    23    1
    19    23    24    1
    20    23    25    1
    21     6     7    1
    22     7     8    1
    23     8     3    1
    24    25    20    1
    25    15    16    1
    26    15    17    1
@<TRIPOS>MOLECULE
*****
 25 26 0 0 0
SMALL
GASTEIGER

@<TRIPOS>ATOM
      1 C         140.2520  138.0155  163.9056 C.3     1  UNL1        0.0231
      2 C         141.0953  136.7876  163.7301 C.3     1  UNL1        0.0019
      3 C         140.1664  140.1383  167.8725 C.3     1  UNL1        0.0754
      4 C         141.4576  140.0053  167.1208 C.3     1  UNL1        0.0198
      5 C         141.4861  139.2977  165.7985 C.3     1  UNL1        0.0018
      6 C         140.2235  138.7231  165.2279 C.3     1  UNL1        0.0019
      7 C         138.9323  138.8561  165.9797 C.3     1  UNL1        0.0018
      8 C         138.9038  139.5637  167.3020 C.3     1  UNL1        0.0198
      9 C         140.1829  143.0508  170.5683 C.3     1  UNL1        0.0948
     10 C         140.2114  142.3432  169.2460 C.2     1  UNL1        0.2261
     11 O         140.3134  143.1330  167.9748 O.2     1  UNL1       -0.2749
     12 N         140.1379  140.8459  169.1948 N.am    1  UNL1       -0.2794
     13 C         140.0359  140.0562  170.4660 C.3     1  UNL1        0.1148
     14 C         139.4371  138.5359  162.7588 C.3     1  UNL1        0.1285
     15 N         138.3087  137.7157  162.2074 N.3     1  UNL1       -0.3150
     16 H         137.8674  138.2186  161.4375 H       1  UNL1        0.1192
     17 H         137.6211  137.5465  162.9414 H       1  UNL1        0.1192
     18 C         139.7507  139.8765  162.1633 C.2     1  UNL1        0.2397
     19 O         140.8403  140.0066  161.1407 O.2     1  UNL1       -0.2734
     20 N         138.9746  141.0870  162.5906 N.am    1  UNL1       -0.2756
     21 C         137.8631  141.1115  163.5975 C.3     1  UNL1        0.0964
     22 C         137.3753  142.5251  163.7151 C.3     1  UNL1        0.0585
     23 C         138.1854  143.3743  162.7809 C.3     1  UNL1        0.1824
     24 F         138.0337  144.8526  162.5774 F       1  UNL1       -0.2354
     25 C         139.1738  142.4854  162.0859 C.3     1  UNL1        0.1286
@<TRIPOS>BOND
     1     9    10    1
     2    10    11    2
     3    10    12   am
     4    12    13    1
     5    12     3    1
     6     3     4    1
     7     4     5    1
     8     5     6    1
     9     6     1    1
    10     1     2    1
    11     1    14    1
    12    14    15    1
    13    14    18    1
    14    18    19    2
    15    18    20   am
    16    20    21    1
    17    21    22    1
    18    22    23    1
    19    23    24    1
    20    23    25    1
    21     6     7    1
    22     7     8    1
    23     8     3    1
    24    25    20    1
    25    15    16    1
    26    15    17    1
@<TRIPOS>MOLECULE
*****
 25 26 0 0 0
SMALL
GASTEIGER

@<TRIPOS>ATOM
      1 C         140.7593  141.9461  168.5661 C.3     1  UNL1        0.0231
      2 C         140.3151  142.9968  169.5400 C.3     1  UNL1        0.0019
      3 C         142.7799  143.1455  164.7283 C.3     1  UNL1        0.0754
      4 C         141.2977  143.3180  164.8813 C.3     1  UNL1        0.0198
      5 C         140.6242  142.9182  166.1605 C.3     1  UNL1        0.0018
      6 C         141.4328  142.3459  167.2868 C.3     1  UNL1        0.0019
      7 C         142.9149  142.1734  167.1338 C.3     1  UNL1        0.0018
      8 C         143.5885  142.5732  165.8546 C.3     1  UNL1        0.0198
      9 C         144.4261  142.9115  161.1248 C.3     1  UNL1        0.0948
     10 C         143.7525  142.5117  162.4041 C.2     1  UNL1        0.2261
     11 O         143.3782  141.0781  162.6383 O.2     1  UNL1       -0.2749
     12 N         143.4534  143.5453  163.4490 N.am    1  UNL1       -0.2794
     13 C         143.8277  144.9788  163.2147 C.3     1  UNL1        0.1148
     14 C         140.5299  140.4955  168.8714 C.3     1  UNL1        0.1285
     15 N         141.4260  139.7822  169.8401 N.3     1  UNL1       -0.3150
     16 H         141.1277  138.8107  169.9271 H       1  UNL1        0.1192
     17 H         141.3724  140.2373  170.7513 H       1  UNL1        0.1192
     18 C         139.4046  139.7583  168.2081 C.2     1  UNL1        0.2397
     19 O         138.1052  139.5646  168.9319 O.2     1  UNL1       -0.2734
     20 N         139.5786  139.2147  166.8209 N.am    1  UNL1       -0.2756
     21 C         140.8135  139.3301  165.9772 C.3     1  UNL1        0.0964
     22 C         140.5464  138.6470  164.6687 C.3     1  UNL1        0.0585
     23 C         139.1464  138.1095  164.7037 C.3     1  UNL1        0.1824
     24 F         138.4644  137.3538  163.6020 F       1  UNL1       -0.2354
     25 C         138.5483  138.4604  166.0338 C.3     1  UNL1        0.1286
@<TRIPOS>BOND
     1     9    10    1
     2    10    11    2
     3    10    12   am
     4    12    13    1
     5    12     3    1
     6     3     4    1
     7     4     5    1
     8     5     6    1
     9     6     1    1
    10     1     2    1
    11     1    14    1
    12    14    15    1
    13    14    18    1
    14    18    19    2
    15    18    20   am
    16    20    21    1
    17    21    22    1
    18    22    23    1
    19    23    24    1
    20    23    25    1
    21     6     7    1
    22     7     8    1
    23     8     3    1
    24    25    20    1
    25    15    16    1
    26    15    17    1
@<TRIPOS>MOLECULE
*****
 25 26 0 0 0
SMALL
GASTEIGER

@<TRIPOS>ATOM
      1 C         138.5747  142.8905  163.8746 C.3     1  UNL1        0.0231
      2 C         138.7043  144.3738  163.6926 C.3     1  UNL1        0.0019
      3 C         140.2026  140.9278  167.5824 C.3     1  UNL1        0.0754
      4 C         139.3547  140.1407  166.6278 C.3     1  UNL1        0.0198
      5 C         138.8120  140.7949  165.3918 C.3     1  UNL1        0.0018
      6 C         139.1174  142.2363  165.1105 C.3     1  UNL1        0.0019
      7 C         139.9653  143.0234  166.0651 C.3     1  UNL1        0.0018
      8 C         140.5080  142.3692  167.3011 C.3     1  UNL1        0.0198
      9 C         142.6143  138.9202  170.0120 C.3     1  UNL1        0.0948
     10 C         142.0717  139.5745  168.7761 C.2     1  UNL1        0.2261
     11 O         142.8555  139.5296  167.4980 O.2     1  UNL1       -0.2749
     12 N         140.7453  140.2736  168.8183 N.am    1  UNL1       -0.2794
     13 C         139.9615  140.3185  170.0964 C.3     1  UNL1        0.1148
     14 C         137.9025  142.0615  162.8207 C.3     1  UNL1        0.1285
     15 N         136.5995  141.3810  163.1195 N.3     1  UNL1       -0.3150
     16 H         136.2889  140.8650  162.2964 H       1  UNL1        0.1192
     17 H         135.8995  142.0805  163.3665 H       1  UNL1        0.1192
     18 C         138.5332  141.9130  161.4678 C.2     1  UNL1        0.2397
     19 O         138.4220  143.0208  160.4627 O.2     1  UNL1       -0.2734
     20 N         139.2752  140.6565  161.1201 N.am    1  UNL1       -0.2756
     21 C         139.4687  139.4700  162.0171 C.3     1  UNL1        0.0964
     22 C         140.2670  138.4462  161.2657 C.3     1  UNL1        0.0585
     23 C         140.5669  139.0000  159.9043 C.3     1  UNL1        0.1824
     24 F         141.3435  138.3091  158.8228 F       1  UNL1       -0.2354
     25 C         139.9540  140.3661  159.8144 C.3     1  UNL1        0.1286
@<TRIPOS>BOND
     1     9    10    1
     2    10    11    2
     3    10    12   am
     4    12    13    1
     5    12     3    1
     6     3     4    1
     7     4     5    1
     8     5     6    1
     9     6     1    1
    10     1     2    1
    11     1    14    1
    12    14    15    1
    13    14    18    1
    14    18    19    2
    15    18    20   am
    16    20    21    1
    17    21    22    1
    18    22    23    1
    19    23    24    1
    20    23    25    1
    21     6     7    1
    22     7     8    1
    23     8     3    1
    24    25    20    1
    25    15    16    1
    26    15    17    1
@<TRIPOS>MOLECULE
*****
 25 26 0 0 0
SMALL
GASTEIGER

@<TRIPOS>ATOM
      1 C         141.8669  144.7244  163.1677 C.3     1  UNL1        0.0231
      2 C         143.2856  145.1532  163.3984 C.3     1  UNL1        0.0019
      3 C         140.0400  141.5146  165.7385 C.3     1  UNL1        0.0754
      4 C         141.0904  141.1592  164.7285 C.3     1  UNL1        0.0198
      5 C         141.6994  142.2292  163.8715 C.3     1  UNL1        0.0018
      6 C         141.2579  143.6545  164.0246 C.3     1  UNL1        0.0019
      7 C         140.2075  144.0099  165.0346 C.3     1  UNL1        0.0018
      8 C         139.5985  142.9399  165.8916 C.3     1  UNL1        0.0198
      9 C         137.7815  138.4578  166.8810 C.3     1  UNL1        0.0948
     10 C         138.3904  139.5278  166.0240 C.2     1  UNL1        0.2261
     11 O         137.9588  139.6809  164.5956 O.2     1  UNL1       -0.2749
     12 N         139.4310  140.4446  166.5954 N.am    1  UNL1       -0.2794
     13 C         139.8626  140.2915  168.0238 C.3     1  UNL1        0.1148
     14 C         141.0571  145.3656  162.0800 C.3     1  UNL1        0.1285
     15 N         140.3094  146.6373  162.3519 N.3     1  UNL1       -0.3150
     16 H         139.8173  146.9295  161.5077 H       1  UNL1        0.1192
     17 H         140.9671  147.3653  162.6313 H       1  UNL1        0.1192
     18 C         140.9950  144.7352  160.7203 C.2     1  UNL1        0.2397
     19 O         141.9517  145.1672  159.6489 O.2     1  UNL1       -0.2734
     20 N         139.9761  143.6727  160.4321 N.am    1  UNL1       -0.2756
     21 C         138.9593  143.1409  161.3982 C.3     1  UNL1        0.0964
     22 C         138.1499  142.0950  160.6904 C.3     1  UNL1        0.0585
     23 C         138.6664  141.9804  159.2867 C.3     1  UNL1        0.1824
     24 F         138.1457  141.0536  158.2286 F       1  UNL1       -0.2354
     25 C         139.7950  142.9555  159.1271 C.3     1  UNL1        0.1286
@<TRIPOS>BOND
     1     9    10    1
     2    10    11    2
     3    10    12   am
     4    12    13    1
     5    12     3    1
     6     3     4    1
     7     4     5    1
     8     5     6    1
     9     6     1    1
    10     1     2    1
    11     1    14    1
    12    14    15    1
    13    14    18    1
    14    18    19    2
    15    18    20   am
    16    20    21    1
    17    21    22    1
    18    22    23    1
    19    23    24    1
    20    23    25    1
    21     6     7    1
    22     7     8    1
    23     8     3    1
    24    25    20    1
    25    15    16    1
    26    15    17    1
