@<TRIPOS>MOLECULE
*****
 31 32 0 0 0
SMALL
GASTEIGER

@<TRIPOS>ATOM
      1 C         140.6822  141.0345  169.5924 C.3     1  UNL1        0.0828
      2 C         140.4314  142.2930  170.3692 C.2     1  UNL1        0.2442
      3 O         140.4841  142.2722  171.8681 O.2     1  UNL1       -0.2730
      4 N         140.1279  143.5722  169.6470 N.am    1  UNL1       -0.1970
      5 O         139.8771  144.8306  170.4237 O.3     1  UNL1       -0.2952
      6 H         140.0933  143.5857  168.6632 H       1  UNL1        0.1822
      7 H         139.9484  144.6443  171.3730 H       1  UNL1        0.2414
      8 C         142.0861  140.6304  169.2520 C.3     1  UNL1        0.0355
      9 C         144.1981  143.5484  165.5070 C.3     1  UNL1        0.0334
     10 C         143.6443  142.2348  165.9736 C.ar    1  UNL1        0.0050
     11 C         143.1421  142.0894  167.3794 C.ar    1  UNL1       -0.0063
     12 C         142.5883  140.7758  167.8460 C.ar    1  UNL1       -0.0222
     13 C         142.5368  139.6075  166.9067 C.ar    1  UNL1       -0.0063
     14 C         143.0391  139.7528  165.5008 C.ar    1  UNL1        0.0050
     15 C         142.9875  138.5845  164.5613 C.3     1  UNL1        0.0334
     16 C         143.5928  141.0665  165.0342 C.ar    1  UNL1        0.1321
     17 F         144.0951  141.2118  163.6282 F       1  UNL1       -0.2048
     18 C         139.5291  140.1801  169.1560 C.3     1  UNL1        0.0095
     19 C         139.1904  140.0644  167.6994 C.3     1  UNL1        0.0019
     20 C         138.1746  139.0594  167.2431 C.3     1  UNL1        0.0171
     21 C         138.4781  138.1608  166.0810 C.3     1  UNL1        0.0688
     22 N         139.3325  138.6569  164.9524 N.3     1  UNL1       -0.2937
     23 H         139.5973  137.8398  164.4024 H       1  UNL1        0.1236
     24 C         138.7884  139.6697  163.9890 C.3     1  UNL1        0.0956
     25 C         138.8200  141.1284  164.3369 C.ar    1  UNL1       -0.0062
     26 C         137.6268  141.9927  164.0550 C.ar    1  UNL1       -0.0006
     27 C         137.6584  143.4515  164.4029 C.ar    1  UNL1        0.0294
     28 C         138.8830  144.0459  165.0328 C.ar    1  UNL1        0.1401
     29 F         138.9145  145.5046  165.3807 F       1  UNL1       -0.2042
     30 C         140.0762  143.1817  165.3147 C.ar    1  UNL1        0.0294
     31 C         140.0447  141.7230  164.9668 C.ar    1  UNL1       -0.0006
@<TRIPOS>BOND
     1     9    10    1
     2    10    11   ar
     3    11    12   ar
     4    12     8    1
     5     1     8    1
     6     1    18    1
     7    18    19    1
     8    19    20    1
     9    20    21    1
    10    21    22    1
    11    22    24    1
    12    24    25    1
    13    25    26   ar
    14    26    27   ar
    15    27    28   ar
    16    28    29    1
    17    28    30   ar
    18    30    31   ar
    19     1     2    1
    20     2     3    2
    21     2     4   am
    22     4     5    1
    23    12    13   ar
    24    13    14   ar
    25    14    15    1
    26    14    16   ar
    27    16    17    1
    28    16    10   ar
    29    31    25   ar
    30    22    23    1
    31     4     6    1
    32     5     7    1
@<TRIPOS>MOLECULE
*****
 31 32 0 0 0
SMALL
GASTEIGER

@<TRIPOS>ATOM
      1 C         140.6048  144.6139  163.7985 C.3     1  UNL1        0.0828
      2 C         139.6969  145.1738  162.7438 C.2     1  UNL1        0.2442
      3 O         138.4663  144.4193  162.3360 O.2     1  UNL1       -0.2730
      4 N         140.0197  146.4881  162.0969 N.am    1  UNL1       -0.1970
      5 O         139.1118  147.0479  161.0423 O.3     1  UNL1       -0.2952
      6 H         140.8274  146.9832  162.3646 H       1  UNL1        0.1822
      7 H         138.3693  146.4403  160.8991 H       1  UNL1        0.2414
      8 C         140.0428  143.7579  164.8946 C.3     1  UNL1        0.0355
      9 C         141.1236  139.4879  162.1379 C.3     1  UNL1        0.0334
     10 C         140.4996  140.1358  163.3382 C.ar    1  UNL1        0.0050
     11 C         140.5832  141.6228  163.5163 C.ar    1  UNL1       -0.0063
     12 C         139.9591  142.2708  164.7165 C.ar    1  UNL1       -0.0222
     13 C         139.2514  141.4317  165.7388 C.ar    1  UNL1       -0.0063
     14 C         139.1677  139.9447  165.5607 C.ar    1  UNL1        0.0050
     15 C         138.4599  139.1055  166.5830 C.3     1  UNL1        0.0334
     16 C         139.7918  139.2967  164.3604 C.ar    1  UNL1        0.1321
     17 F         139.7081  137.8096  164.1824 F       1  UNL1       -0.2048
     18 C         142.0747  144.9102  163.7572 C.3     1  UNL1        0.0095
     19 C         142.8908  144.4928  162.5699 C.3     1  UNL1        0.0019
     20 C         144.3095  144.0422  162.7560 C.3     1  UNL1        0.0171
     21 C         144.7916  142.7880  162.0892 C.3     1  UNL1        0.0688
     22 N         145.5224  141.7484  162.8860 N.3     1  UNL1       -0.2937
     23 H         145.7709  142.1803  163.7760 H       1  UNL1        0.1236
     24 C         144.8548  140.4445  163.2090 C.3     1  UNL1        0.0956
     25 C         144.0736  140.2967  164.4808 C.ar    1  UNL1       -0.0062
     26 C         143.6661  138.9338  164.9567 C.ar    1  UNL1       -0.0006
     27 C         142.8848  138.7860  166.2287 C.ar    1  UNL1        0.0294
     28 C         142.5109  140.0012  167.0247 C.ar    1  UNL1        0.1401
     29 F         141.7296  139.8534  168.2965 F       1  UNL1       -0.2042
     30 C         142.9183  141.3641  166.5488 C.ar    1  UNL1        0.0294
     31 C         143.6996  141.5119  165.2769 C.ar    1  UNL1       -0.0006
@<TRIPOS>BOND
     1     9    10    1
     2    10    11   ar
     3    11    12   ar
     4    12     8    1
     5     1     8    1
     6     1    18    1
     7    18    19    1
     8    19    20    1
     9    20    21    1
    10    21    22    1
    11    22    24    1
    12    24    25    1
    13    25    26   ar
    14    26    27   ar
    15    27    28   ar
    16    28    29    1
    17    28    30   ar
    18    30    31   ar
    19     1     2    1
    20     2     3    2
    21     2     4   am
    22     4     5    1
    23    12    13   ar
    24    13    14   ar
    25    14    15    1
    26    14    16   ar
    27    16    17    1
    28    16    10   ar
    29    31    25   ar
    30    22    23    1
    31     4     6    1
    32     5     7    1
@<TRIPOS>MOLECULE
*****
 31 32 0 0 0
SMALL
GASTEIGER

@<TRIPOS>ATOM
      1 C         141.6439  140.9237  168.9907 C.3     1  UNL1        0.0828
      2 C         142.8381  140.7588  169.8834 C.2     1  UNL1        0.2442
      3 O         143.8571  141.8549  169.9831 O.2     1  UNL1       -0.2730
      4 N         143.0132  139.4976  170.6764 N.am    1  UNL1       -0.1970
      5 O         144.2073  139.3326  171.5691 O.3     1  UNL1       -0.2952
      6 H         142.3443  138.7782  170.6110 H       1  UNL1        0.1822
      7 H         144.7618  140.1268  171.5174 H       1  UNL1        0.2414
      8 C         141.4017  142.2309  168.2960 C.3     1  UNL1        0.0355
      9 C         139.9234  142.7197  163.3386 C.3     1  UNL1        0.0334
     10 C         141.0119  142.6297  164.3668 C.ar    1  UNL1        0.0050
     11 C         140.6626  142.4753  165.8173 C.ar    1  UNL1       -0.0063
     12 C         141.7511  142.3853  166.8454 C.ar    1  UNL1       -0.0222
     13 C         143.1889  142.4498  166.4230 C.ar    1  UNL1       -0.0063
     14 C         143.5382  142.6042  164.9725 C.ar    1  UNL1        0.0050
     15 C         144.9761  142.6687  164.5500 C.3     1  UNL1        0.0334
     16 C         142.4497  142.6942  163.9444 C.ar    1  UNL1        0.1321
     17 F         142.7991  142.8486  162.4937 F       1  UNL1       -0.2048
     18 C         140.6920  139.7815  168.7928 C.3     1  UNL1        0.0095
     19 C         139.2460  140.0524  168.5003 C.3     1  UNL1        0.0019
     20 C         138.7099  139.8476  167.1144 C.3     1  UNL1        0.0171
     21 C         138.3224  138.4730  166.6557 C.3     1  UNL1        0.0688
     22 N         138.8493  137.9395  165.3566 N.3     1  UNL1       -0.2937
     23 H         138.0523  137.5495  164.8535 H       1  UNL1        0.1236
     24 C         139.5581  138.8544  164.4023 C.3     1  UNL1        0.0956
     25 C         141.0565  138.9227  164.4018 C.ar    1  UNL1       -0.0062
     26 C         141.8160  138.7420  165.6826 C.ar    1  UNL1       -0.0006
     27 C         143.3145  138.8103  165.6820 C.ar    1  UNL1        0.0294
     28 C         144.0534  139.0592  164.4006 C.ar    1  UNL1        0.1401
     29 F         145.5518  139.1275  164.4000 F       1  UNL1       -0.2042
     30 C         143.2939  139.2399  163.1198 C.ar    1  UNL1        0.0294
     31 C         141.7955  139.1716  163.1203 C.ar    1  UNL1       -0.0006
@<TRIPOS>BOND
     1     9    10    1
     2    10    11   ar
     3    11    12   ar
     4    12     8    1
     5     1     8    1
     6     1    18    1
     7    18    19    1
     8    19    20    1
     9    20    21    1
    10    21    22    1
    11    22    24    1
    12    24    25    1
    13    25    26   ar
    14    26    27   ar
    15    27    28   ar
    16    28    29    1
    17    28    30   ar
    18    30    31   ar
    19     1     2    1
    20     2     3    2
    21     2     4   am
    22     4     5    1
    23    12    13   ar
    24    13    14   ar
    25    14    15    1
    26    14    16   ar
    27    16    17    1
    28    16    10   ar
    29    31    25   ar
    30    22    23    1
    31     4     6    1
    32     5     7    1
@<TRIPOS>MOLECULE
*****
 31 32 0 0 0
SMALL
GASTEIGER

@<TRIPOS>ATOM
      1 C         142.4517  142.0340  167.6537 C.3     1  UNL1        0.0828
      2 C         143.1761  141.7463  168.9354 C.2     1  UNL1        0.2442
      3 O         144.0602  142.7917  169.5481 O.2     1  UNL1       -0.2730
      4 N         143.0162  140.4133  169.6042 N.am    1  UNL1       -0.1970
      5 O         143.7405  140.1255  170.8859 O.3     1  UNL1       -0.2952
      6 H         142.4359  139.7272  169.2020 H       1  UNL1        0.1822
      7 H         144.2641  140.9007  171.1424 H       1  UNL1        0.2414
      8 C         140.9770  142.3079  167.6708 C.3     1  UNL1        0.0355
      9 C         138.6525  138.1720  165.5519 C.3     1  UNL1        0.0334
     10 C         138.9294  139.6462  165.5561 C.ar    1  UNL1        0.0050
     11 C         139.8147  140.2400  166.6113 C.ar    1  UNL1       -0.0063
     12 C         140.0916  141.7142  166.6156 C.ar    1  UNL1       -0.0222
     13 C         139.4831  142.5946  165.5646 C.ar    1  UNL1       -0.0063
     14 C         138.5978  142.0008  164.5094 C.ar    1  UNL1        0.0050
     15 C         137.9892  142.8813  163.4584 C.3     1  UNL1        0.0334
     16 C         138.3209  140.5266  164.5052 C.ar    1  UNL1        0.1321
     17 F         137.4354  139.9328  163.4499 F       1  UNL1       -0.2048
     18 C         143.2021  142.0478  166.3550 C.3     1  UNL1        0.0095
     19 C         143.0700  143.2172  165.4248 C.3     1  UNL1        0.0019
     20 C         144.2576  143.6883  164.6389 C.3     1  UNL1        0.0171
     21 C         144.1313  143.9356  163.1649 C.3     1  UNL1        0.0688
     22 N         145.0250  143.2099  162.2033 N.3     1  UNL1       -0.2937
     23 H         145.9347  143.1217  162.6560 H       1  UNL1        0.1236
     24 C         144.6491  141.8417  161.7168 C.3     1  UNL1        0.0956
     25 C         144.0432  140.8490  162.6641 C.ar    1  UNL1       -0.0062
     26 C         142.5667  140.5865  162.6322 C.ar    1  UNL1       -0.0006
     27 C         141.9607  139.5938  163.5795 C.ar    1  UNL1        0.0294
     28 C         142.8313  138.8636  164.5587 C.ar    1  UNL1        0.1401
     29 F         142.2254  137.8709  165.5060 F       1  UNL1       -0.2042
     30 C         144.3078  139.1261  164.5906 C.ar    1  UNL1        0.0294
     31 C         144.9138  140.1187  163.6433 C.ar    1  UNL1       -0.0006
@<TRIPOS>BOND
     1     9    10    1
     2    10    11   ar
     3    11    12   ar
     4    12     8    1
     5     1     8    1
     6     1    18    1
     7    18    19    1
     8    19    20    1
     9    20    21    1
    10    21    22    1
    11    22    24    1
    12    24    25    1
    13    25    26   ar
    14    26    27   ar
    15    27    28   ar
    16    28    29    1
    17    28    30   ar
    18    30    31   ar
    19     1     2    1
    20     2     3    2
    21     2     4   am
    22     4     5    1
    23    12    13   ar
    24    13    14   ar
    25    14    15    1
    26    14    16   ar
    27    16    17    1
    28    16    10   ar
    29    31    25   ar
    30    22    23    1
    31     4     6    1
    32     5     7    1
@<TRIPOS>MOLECULE
*****
 31 32 0 0 0
SMALL
GASTEIGER

@<TRIPOS>ATOM
      1 C         142.6855  142.2120  167.6257 C.3     1  UNL1        0.0828
      2 C         143.3584  141.8516  168.9170 C.2     1  UNL1        0.2442
      3 O         144.3349  142.8016  169.5446 O.2     1  UNL1       -0.2730
      4 N         143.0547  140.5411  169.5807 N.am    1  UNL1       -0.1970
      5 O         143.7276  140.1807  170.8720 O.3     1  UNL1       -0.2952
      6 H         142.4138  139.9176  169.1688 H       1  UNL1        0.1822
      7 H         144.3233  140.8987  171.1376 H       1  UNL1        0.2414
      8 C         141.2523  142.6546  167.6249 C.3     1  UNL1        0.0355
      9 C         138.3682  143.1420  163.3302 C.3     1  UNL1        0.0334
     10 C         138.8460  142.3156  164.4873 C.ar    1  UNL1        0.0050
     11 C         139.8102  142.8982  165.4775 C.ar    1  UNL1       -0.0063
     12 C         140.2880  142.0718  166.6346 C.ar    1  UNL1       -0.0222
     13 C         139.8015  140.6628  166.8014 C.ar    1  UNL1       -0.0063
     14 C         138.8372  140.0802  165.8112 C.ar    1  UNL1        0.0050
     15 C         138.3507  138.6710  165.9779 C.3     1  UNL1        0.0334
     16 C         138.3595  140.9065  164.6541 C.ar    1  UNL1        0.1321
     17 F         137.3951  140.3238  163.6638 F       1  UNL1       -0.2048
     18 C         143.4458  142.1298  166.3354 C.3     1  UNL1        0.0095
     19 C         143.9555  143.3813  165.6841 C.3     1  UNL1        0.0019
     20 C         143.2379  143.9555  164.4985 C.3     1  UNL1        0.0171
     21 C         144.0176  144.4365  163.3108 C.3     1  UNL1        0.0688
     22 N         144.7132  143.4498  162.4206 N.3     1  UNL1       -0.2937
     23 H         145.5153  143.0967  162.9425 H       1  UNL1        0.1236
     24 C         143.9715  142.2525  161.9043 C.3     1  UNL1        0.0956
     25 C         143.6765  141.1011  162.8193 C.ar    1  UNL1       -0.0062
     26 C         144.8021  140.3493  163.4657 C.ar    1  UNL1       -0.0006
     27 C         144.5070  139.1978  164.3806 C.ar    1  UNL1        0.0294
     28 C         143.0864  138.7982  164.6492 C.ar    1  UNL1        0.1401
     29 F         142.7914  137.6468  165.5641 F       1  UNL1       -0.2042
     30 C         141.9608  139.5500  164.0028 C.ar    1  UNL1        0.0294
     31 C         142.2558  140.7014  163.0878 C.ar    1  UNL1       -0.0006
@<TRIPOS>BOND
     1     9    10    1
     2    10    11   ar
     3    11    12   ar
     4    12     8    1
     5     1     8    1
     6     1    18    1
     7    18    19    1
     8    19    20    1
     9    20    21    1
    10    21    22    1
    11    22    24    1
    12    24    25    1
    13    25    26   ar
    14    26    27   ar
    15    27    28   ar
    16    28    29    1
    17    28    30   ar
    18    30    31   ar
    19     1     2    1
    20     2     3    2
    21     2     4   am
    22     4     5    1
    23    12    13   ar
    24    13    14   ar
    25    14    15    1
    26    14    16   ar
    27    16    17    1
    28    16    10   ar
    29    31    25   ar
    30    22    23    1
    31     4     6    1
    32     5     7    1
@<TRIPOS>MOLECULE
*****
 31 32 0 0 0
SMALL
GASTEIGER

@<TRIPOS>ATOM
      1 C         137.9352  142.5544  163.9536 C.3     1  UNL1        0.0828
      2 C         137.6776  142.0256  162.5737 C.2     1  UNL1        0.2442
      3 O         137.7474  142.9471  161.3922 O.2     1  UNL1       -0.2730
      4 N         137.3502  140.5753  162.3753 N.am    1  UNL1       -0.1970
      5 O         137.0926  140.0465  160.9955 O.3     1  UNL1       -0.2952
      6 H         137.3044  139.9705  163.1508 H       1  UNL1        0.1822
      7 H         137.1769  140.7674  160.3520 H       1  UNL1        0.2414
      8 C         138.1345  141.6032  165.0962 C.3     1  UNL1        0.0355
      9 C         141.5871  137.7457  164.6496 C.3     1  UNL1        0.0334
     10 C         141.2231  139.1116  165.1512 C.ar    1  UNL1        0.0050
     11 C         139.8608  139.6745  164.8729 C.ar    1  UNL1       -0.0063
     12 C         139.4968  141.0404  165.3746 C.ar    1  UNL1       -0.0222
     13 C         140.4950  141.8435  166.1546 C.ar    1  UNL1       -0.0063
     14 C         141.8573  141.2807  166.4329 C.ar    1  UNL1        0.0050
     15 C         142.8556  142.0839  167.2130 C.3     1  UNL1        0.0334
     16 C         142.2213  139.9148  165.9313 C.ar    1  UNL1        0.1321
     17 F         143.5836  139.3520  166.2096 F       1  UNL1       -0.2048
     18 C         137.9934  144.0343  164.1909 C.3     1  UNL1        0.0095
     19 C         139.3112  144.7003  164.4552 C.3     1  UNL1        0.0019
     20 C         140.4730  144.4542  163.5388 C.3     1  UNL1        0.0171
     21 C         141.5056  145.5226  163.3333 C.3     1  UNL1        0.0688
     22 N         142.9359  145.1454  163.0844 N.3     1  UNL1       -0.2937
     23 H         143.4710  146.0136  163.0696 H       1  UNL1        0.1236
     24 C         143.6420  144.2175  164.0281 C.3     1  UNL1        0.0956
     25 C         143.8463  142.7796  163.6535 C.ar    1  UNL1       -0.0062
     26 C         142.8455  142.0825  162.7802 C.ar    1  UNL1       -0.0006
     27 C         143.0499  140.6444  162.4056 C.ar    1  UNL1        0.0294
     28 C         144.2549  139.9035  162.9042 C.ar    1  UNL1        0.1401
     29 F         144.4593  138.4655  162.5296 F       1  UNL1       -0.2042
     30 C         145.2557  140.6005  163.7775 C.ar    1  UNL1        0.0294
     31 C         145.0514  142.0385  164.1521 C.ar    1  UNL1       -0.0006
@<TRIPOS>BOND
     1     9    10    1
     2    10    11   ar
     3    11    12   ar
     4    12     8    1
     5     1     8    1
     6     1    18    1
     7    18    19    1
     8    19    20    1
     9    20    21    1
    10    21    22    1
    11    22    24    1
    12    24    25    1
    13    25    26   ar
    14    26    27   ar
    15    27    28   ar
    16    28    29    1
    17    28    30   ar
    18    30    31   ar
    19     1     2    1
    20     2     3    2
    21     2     4   am
    22     4     5    1
    23    12    13   ar
    24    13    14   ar
    25    14    15    1
    26    14    16   ar
    27    16    17    1
    28    16    10   ar
    29    31    25   ar
    30    22    23    1
    31     4     6    1
    32     5     7    1
@<TRIPOS>MOLECULE
*****
 31 32 0 0 0
SMALL
GASTEIGER

@<TRIPOS>ATOM
      1 C         140.1835  140.2227  167.6296 C.3     1  UNL1        0.0828
      2 C         139.5291  140.4179  168.9652 C.2     1  UNL1        0.2442
      3 O         140.0771  141.4289  169.9282 O.2     1  UNL1       -0.2730
      4 N         138.3267  139.6021  169.3376 N.am    1  UNL1       -0.1970
      5 O         137.6724  139.7973  170.6731 O.3     1  UNL1       -0.2952
      6 H         137.9671  138.9385  168.7055 H       1  UNL1        0.1822
      7 H         138.1474  140.4825  171.1689 H       1  UNL1        0.2414
      8 C         141.6405  139.8746  167.5520 C.3     1  UNL1        0.0355
      9 C         144.4976  143.7049  165.5110 C.3     1  UNL1        0.0334
     10 C         143.9102  142.3282  165.4123 C.ar    1  UNL1        0.0050
     11 C         143.0691  141.7897  166.5314 C.ar    1  UNL1       -0.0063
     12 C         142.4817  140.4130  166.4328 C.ar    1  UNL1       -0.0222
     13 C         142.7354  139.5749  165.2150 C.ar    1  UNL1       -0.0063
     14 C         143.5766  140.1134  164.0959 C.ar    1  UNL1        0.0050
     15 C         143.8303  139.2752  162.8780 C.3     1  UNL1        0.0334
     16 C         144.1640  141.4900  164.1946 C.ar    1  UNL1        0.1321
     17 F         145.0052  142.0285  163.0754 F       1  UNL1       -0.2048
     18 C         139.3809  140.3755  166.3716 C.3     1  UNL1        0.0095
     19 C         138.5387  139.2373  165.8763 C.3     1  UNL1        0.0019
     20 C         139.0405  138.3600  164.7679 C.3     1  UNL1        0.0171
     21 C         138.9274  138.8137  163.3426 C.3     1  UNL1        0.0688
     22 N         140.0924  139.4802  162.6730 N.3     1  UNL1       -0.2937
     23 H         140.3286  138.9124  161.8592 H       1  UNL1        0.1236
     24 C         139.9719  140.8961  162.1928 C.3     1  UNL1        0.0956
     25 C         139.6125  141.9872  163.1573 C.ar    1  UNL1       -0.0062
     26 C         140.6938  142.7765  163.8337 C.ar    1  UNL1       -0.0006
     27 C         140.3344  143.8677  164.7983 C.ar    1  UNL1        0.0294
     28 C         138.8936  144.1694  165.0864 C.ar    1  UNL1        0.1401
     29 F         138.5342  145.2605  166.0509 F       1  UNL1       -0.2042
     30 C         137.8122  143.3801  164.4099 C.ar    1  UNL1        0.0294
     31 C         138.1716  142.2890  163.4454 C.ar    1  UNL1       -0.0006
@<TRIPOS>BOND
     1     9    10    1
     2    10    11   ar
     3    11    12   ar
     4    12     8    1
     5     1     8    1
     6     1    18    1
     7    18    19    1
     8    19    20    1
     9    20    21    1
    10    21    22    1
    11    22    24    1
    12    24    25    1
    13    25    26   ar
    14    26    27   ar
    15    27    28   ar
    16    28    29    1
    17    28    30   ar
    18    30    31   ar
    19     1     2    1
    20     2     3    2
    21     2     4   am
    22     4     5    1
    23    12    13   ar
    24    13    14   ar
    25    14    15    1
    26    14    16   ar
    27    16    17    1
    28    16    10   ar
    29    31    25   ar
    30    22    23    1
    31     4     6    1
    32     5     7    1
@<TRIPOS>MOLECULE
*****
 31 32 0 0 0
SMALL
GASTEIGER

@<TRIPOS>ATOM
      1 C         140.6460  141.5409  168.8337 C.3     1  UNL1        0.0828
      2 C         140.5659  142.6279  169.8644 C.2     1  UNL1        0.2442
      3 O         140.9634  142.3468  171.2832 O.2     1  UNL1       -0.2730
      4 N         140.0883  143.9958  169.4763 N.am    1  UNL1       -0.1970
      5 O         140.0082  145.0827  170.5069 O.3     1  UNL1       -0.2952
      6 H         139.8274  144.1802  168.5451 H       1  UNL1        0.1822
      7 H         140.2990  144.7365  171.3651 H       1  UNL1        0.2414
      8 C         141.8039  141.4944  167.8813 C.3     1  UNL1        0.0355
      9 C         139.1743  144.3796  164.4520 C.3     1  UNL1        0.0334
     10 C         140.4583  143.7525  164.9081 C.ar    1  UNL1        0.0050
     11 C         140.4891  142.9370  166.1666 C.ar    1  UNL1       -0.0063
     12 C         141.7731  142.3099  166.6227 C.ar    1  UNL1       -0.0222
     13 C         143.0263  142.4983  165.8203 C.ar    1  UNL1       -0.0063
     14 C         142.9955  143.3139  164.5617 C.ar    1  UNL1        0.0050
     15 C         144.2487  143.5023  163.7592 C.3     1  UNL1        0.0334
     16 C         141.7115  143.9410  164.1057 C.ar    1  UNL1        0.1321
     17 F         141.6807  144.7565  162.8471 F       1  UNL1       -0.2048
     18 C         139.5682  140.5007  168.7554 C.3     1  UNL1        0.0095
     19 C         139.5277  139.5483  167.5972 C.3     1  UNL1        0.0019
     20 C         138.4520  139.6748  166.5594 C.3     1  UNL1        0.0171
     21 C         138.8167  139.7467  165.1062 C.3     1  UNL1        0.0688
     22 N         139.0127  138.4852  164.3188 N.3     1  UNL1       -0.2937
     23 H         138.9708  138.7439  163.3330 H       1  UNL1        0.1236
     24 C         140.2610  137.6737  164.5008 C.3     1  UNL1        0.0956
     25 C         141.6040  138.3382  164.4334 C.ar    1  UNL1       -0.0062
     26 C         141.9908  139.1260  163.2169 C.ar    1  UNL1       -0.0006
     27 C         143.3340  139.7905  163.1495 C.ar    1  UNL1        0.0294
     28 C         144.2902  139.6673  164.2986 C.ar    1  UNL1        0.1401
     29 F         145.6332  140.3318  164.2311 F       1  UNL1       -0.2042
     30 C         143.9034  138.8796  165.5151 C.ar    1  UNL1        0.0294
     31 C         142.5603  138.2150  165.5825 C.ar    1  UNL1       -0.0006
@<TRIPOS>BOND
     1     9    10    1
     2    10    11   ar
     3    11    12   ar
     4    12     8    1
     5     1     8    1
     6     1    18    1
     7    18    19    1
     8    19    20    1
     9    20    21    1
    10    21    22    1
    11    22    24    1
    12    24    25    1
    13    25    26   ar
    14    26    27   ar
    15    27    28   ar
    16    28    29    1
    17    28    30   ar
    18    30    31   ar
    19     1     2    1
    20     2     3    2
    21     2     4   am
    22     4     5    1
    23    12    13   ar
    24    13    14   ar
    25    14    15    1
    26    14    16   ar
    27    16    17    1
    28    16    10   ar
    29    31    25   ar
    30    22    23    1
    31     4     6    1
    32     5     7    1
@<TRIPOS>MOLECULE
*****
 31 32 0 0 0
SMALL
GASTEIGER

@<TRIPOS>ATOM
      1 C         139.6705  140.0128  166.8451 C.3     1  UNL1        0.0828
      2 C         139.6084  140.2963  168.3169 C.2     1  UNL1        0.2442
      3 O         140.5683  141.2695  168.9343 O.2     1  UNL1       -0.2730
      4 N         138.5862  139.6066  169.1710 N.am    1  UNL1       -0.1970
      5 O         138.5241  139.8900  170.6426 O.3     1  UNL1       -0.2952
      6 H         137.9562  138.9679  168.7657 H       1  UNL1        0.1822
      7 H         139.2084  140.5365  170.8766 H       1  UNL1        0.2414
      8 C         140.9097  140.3465  166.0687 C.3     1  UNL1        0.0355
      9 C         138.8430  144.8079  164.3880 C.3     1  UNL1        0.0334
     10 C         140.0446  143.9450  164.6359 C.ar    1  UNL1        0.0050
     11 C         139.8764  142.5772  165.2283 C.ar    1  UNL1       -0.0063
     12 C         141.0780  141.7143  165.4763 C.ar    1  UNL1       -0.0222
     13 C         142.4478  142.2191  165.1319 C.ar    1  UNL1       -0.0063
     14 C         142.6160  143.5868  164.5394 C.ar    1  UNL1        0.0050
     15 C         143.9859  144.0917  164.1950 C.3     1  UNL1        0.0334
     16 C         141.4144  144.4498  164.2915 C.ar    1  UNL1        0.1321
     17 F         141.5827  145.8176  163.6990 F       1  UNL1       -0.2048
     18 C         138.4933  139.3956  166.1499 C.3     1  UNL1        0.0095
     19 C         138.5594  137.9711  165.6845 C.3     1  UNL1        0.0019
     20 C         139.1926  137.6417  164.3652 C.3     1  UNL1        0.0171
     21 C         140.5971  137.1175  164.3174 C.3     1  UNL1        0.0688
     22 N         141.3050  136.9878  163.0014 N.3     1  UNL1       -0.2937
     23 H         140.7166  136.4040  162.4069 H       1  UNL1        0.1236
     24 C         141.6413  138.2147  162.2066 C.3     1  UNL1        0.0956
     25 C         142.8230  139.0555  162.5892 C.ar    1  UNL1       -0.0062
     26 C         143.5791  138.7572  163.8499 C.ar    1  UNL1       -0.0006
     27 C         144.7609  139.5982  164.2325 C.ar    1  UNL1        0.0294
     28 C         145.1865  140.7374  163.3545 C.ar    1  UNL1        0.1401
     29 F         146.3682  141.5782  163.7371 F       1  UNL1       -0.2042
     30 C         144.4304  141.0357  162.0938 C.ar    1  UNL1        0.0294
     31 C         143.2487  140.1948  161.7111 C.ar    1  UNL1       -0.0006
@<TRIPOS>BOND
     1     9    10    1
     2    10    11   ar
     3    11    12   ar
     4    12     8    1
     5     1     8    1
     6     1    18    1
     7    18    19    1
     8    19    20    1
     9    20    21    1
    10    21    22    1
    11    22    24    1
    12    24    25    1
    13    25    26   ar
    14    26    27   ar
    15    27    28   ar
    16    28    29    1
    17    28    30   ar
    18    30    31   ar
    19     1     2    1
    20     2     3    2
    21     2     4   am
    22     4     5    1
    23    12    13   ar
    24    13    14   ar
    25    14    15    1
    26    14    16   ar
    27    16    17    1
    28    16    10   ar
    29    31    25   ar
    30    22    23    1
    31     4     6    1
    32     5     7    1
