@<TRIPOS>MOLECULE
*****
 32 36 0 0 0
SMALL
GASTEIGER

@<TRIPOS>ATOM
      1 N         140.1581  138.6038  162.2813 N.3     1  UNL1       -0.2703
      2 C         141.2322  139.1428  163.1788 C.3     1  UNL1        0.0727
      3 C         140.9453  139.3827  164.6314 C.3     1  UNL1        0.0260
      4 C         139.5843  139.0836  165.1865 C.3     1  UNL1        0.0737
      5 C         138.5101  138.5446  164.2889 C.3     1  UNL1        0.0260
      6 C         138.7970  138.3047  162.8363 C.3     1  UNL1        0.0727
      7 C         138.2782  138.8331  165.8803 C.3     1  UNL1        0.0306
      8 C         138.4398  139.2108  167.3231 C.3     1  UNL1        0.0984
      9 N         139.8458  139.6948  167.5208 N.am    1  UNL1       -0.2622
     10 C         140.5531  139.6161  166.2004 C.2     1  UNL1        0.2283
     11 O         141.9789  140.0022  165.9395 O.2     1  UNL1       -0.2746
     12 C         140.4401  140.1733  168.8122 C.2     1  UNL1        0.0345
     13 C         139.8066  141.1380  169.7703 C.2     1  UNL1        0.0479
     14 C         140.7472  141.3320  170.9225 C.2     1  UNL1        0.1744
     15 O         140.5140  142.2158  172.1119 O.2     1  UNL1       -0.2913
     16 C         141.9621  140.4873  170.6765 C.3     1  UNL1        0.0752
     17 C         141.7722  139.7711  169.3722 C.3     1  UNL1        0.0497
     18 C         140.4449  138.3639  160.8286 C.3     1  UNL1        0.1063
     19 C         139.8604  139.2730  159.7886 C.3     1  UNL1        0.1483
     20 O         139.2384  138.6956  158.5517 O.3     1  UNL1       -0.3786
     21 H         138.9117  139.4144  157.9883 H       1  UNL1        0.2108
     22 C         142.1395  140.8765  158.6775 C.3     1  UNL1        0.0306
     23 C         141.0372  141.5613  159.4298 C.ar    1  UNL1       -0.0238
     24 C         139.8977  140.7596  159.9853 C.ar    1  UNL1        0.0015
     25 C         138.7954  141.4445  160.7376 C.ar    1  UNL1       -0.0020
     26 C         138.8327  142.9310  160.9344 C.ar    1  UNL1        0.0060
     27 C         139.9722  143.7327  160.3789 C.ar    1  UNL1        0.0748
     28 C         141.0745  143.0478  159.6266 C.ar    1  UNL1        0.0233
     29 C         142.0613  144.0927  159.1972 C.3     1  UNL1        0.2352
     30 O         141.5690  145.4233  159.6840 O.3     1  UNL1       -0.4404
     31 C         140.2778  145.2008  160.4144 C.2     1  UNL1        0.3413
     32 O         139.4394  146.2604  161.0659 O.2     1  UNL1       -0.2449
@<TRIPOS>BOND
     1    22    23    1
     2    23    24   ar
     3    24    19    1
     4    19    20    1
     5    19    18    1
     6    18     1    1
     7     1     2    1
     8     2     3    1
     9     3     4    1
    10     4     5    1
    11     5     6    1
    12     4     7    1
    13     7     8    1
    14     8     9    1
    15     9    12    1
    16    12    13    2
    17    13    14    1
    18    14    15    2
    19    14    16    1
    20    16    17    1
    21     9    10   am
    22    10    11    2
    23    24    25   ar
    24    25    26   ar
    25    26    27   ar
    26    27    28   ar
    27    28    29    1
    28    29    30    1
    29    30    31    1
    30    31    32    2
    31    28    23   ar
    32     6     1    1
    33    17    12    1
    34    31    27    1
    35    10     4    1
    36    20    21    1
@<TRIPOS>MOLECULE
*****
 32 36 0 0 0
SMALL
GASTEIGER

@<TRIPOS>ATOM
      1 N         139.9785  138.4064  162.7645 N.3     1  UNL1       -0.2703
      2 C         139.4348  139.4761  163.6645 C.3     1  UNL1        0.0727
      3 C         140.1405  139.8085  164.9456 C.3     1  UNL1        0.0260
      4 C         141.3899  139.0712  165.3268 C.3     1  UNL1        0.0737
      5 C         141.9337  138.0015  164.4268 C.3     1  UNL1        0.0260
      6 C         141.2279  137.6691  163.1457 C.3     1  UNL1        0.0727
      7 C         142.6423  138.4225  165.8375 C.3     1  UNL1        0.0306
      8 C         142.9936  139.0611  167.1487 C.3     1  UNL1        0.0984
      9 N         141.9583  140.1044  167.4482 N.am    1  UNL1       -0.2622
     10 C         140.9672  140.1107  166.3223 C.2     1  UNL1        0.2283
     11 O         139.7645  141.0001  166.2112 O.2     1  UNL1       -0.2746
     12 C         141.9207  140.9866  168.6607 C.2     1  UNL1        0.0345
     13 C         140.9500  140.8794  169.7992 C.2     1  UNL1        0.0479
     14 C         141.2766  141.9574  170.7898 C.2     1  UNL1        0.1744
     15 O         140.5569  142.2165  172.0802 O.2     1  UNL1       -0.2913
     16 C         142.4491  142.7308  170.2636 C.3     1  UNL1        0.0752
     17 C         142.8472  142.1307  168.9477 C.3     1  UNL1        0.0497
     18 C         139.2728  138.0739  161.4832 C.3     1  UNL1        0.1063
     19 C         139.5487  138.8748  160.2454 C.3     1  UNL1        0.1483
     20 O         139.6582  138.1877  158.9165 O.3     1  UNL1       -0.3786
     21 H         139.8376  138.8453  158.2263 H       1  UNL1        0.2108
     22 C         142.2950  140.0688  160.4252 C.3     1  UNL1        0.0306
     23 C         141.0883  140.9597  160.4262 C.ar    1  UNL1       -0.0238
     24 C         139.7152  140.3628  160.3363 C.ar    1  UNL1        0.0015
     25 C         138.5085  141.2537  160.3373 C.ar    1  UNL1       -0.0020
     26 C         138.6749  142.7417  160.4283 C.ar    1  UNL1        0.0060
     27 C         140.0480  143.3386  160.5182 C.ar    1  UNL1        0.0748
     28 C         141.2547  142.4477  160.5172 C.ar    1  UNL1        0.0233
     29 C         142.4729  143.3172  160.6162 C.3     1  UNL1        0.2352
     30 O         142.0192  144.7455  160.6784 O.3     1  UNL1       -0.4404
     31 C         140.5205  144.7588  160.6178 C.2     1  UNL1        0.3413
     32 O         139.6475  145.9781  160.6511 O.2     1  UNL1       -0.2449
@<TRIPOS>BOND
     1    22    23    1
     2    23    24   ar
     3    24    19    1
     4    19    20    1
     5    19    18    1
     6    18     1    1
     7     1     2    1
     8     2     3    1
     9     3     4    1
    10     4     5    1
    11     5     6    1
    12     4     7    1
    13     7     8    1
    14     8     9    1
    15     9    12    1
    16    12    13    2
    17    13    14    1
    18    14    15    2
    19    14    16    1
    20    16    17    1
    21     9    10   am
    22    10    11    2
    23    24    25   ar
    24    25    26   ar
    25    26    27   ar
    26    27    28   ar
    27    28    29    1
    28    29    30    1
    29    30    31    1
    30    31    32    2
    31    28    23   ar
    32     6     1    1
    33    17    12    1
    34    31    27    1
    35    10     4    1
    36    20    21    1
@<TRIPOS>MOLECULE
*****
 32 36 0 0 0
SMALL
GASTEIGER

@<TRIPOS>ATOM
      1 N         141.9667  138.1000  162.7252 N.3     1  UNL1       -0.2703
      2 C         142.6146  139.1615  163.5640 C.3     1  UNL1        0.0727
      3 C         141.9232  139.6717  164.7934 C.3     1  UNL1        0.0260
      4 C         140.5839  139.1206  165.1841 C.3     1  UNL1        0.0737
      5 C         139.9361  138.0591  164.3453 C.3     1  UNL1        0.0260
      6 C         140.6275  137.5488  163.1159 C.3     1  UNL1        0.0727
      7 C         139.2494  138.6672  165.6975 C.3     1  UNL1        0.0306
      8 C         138.9463  139.4403  166.9468 C.3     1  UNL1        0.0984
      9 N         140.0936  140.3714  167.2055 N.am    1  UNL1       -0.2622
     10 C         141.1057  140.1738  166.1161 C.2     1  UNL1        0.2283
     11 O         142.4104  140.9015  165.9822 O.2     1  UNL1       -0.2746
     12 C         140.2086  141.3314  168.3521 C.2     1  UNL1        0.0345
     13 C         140.1713  140.9740  169.8084 C.2     1  UNL1        0.0479
     14 C         140.3207  142.2392  170.6002 C.2     1  UNL1        0.1744
     15 O         140.3376  142.3462  172.0964 O.2     1  UNL1       -0.2913
     16 C         140.4504  143.3786  169.6334 C.3     1  UNL1        0.0752
     17 C         140.3811  142.8175  168.2439 C.3     1  UNL1        0.0497
     18 C         142.6581  137.5897  161.4957 C.3     1  UNL1        0.1063
     19 C         142.4363  138.2659  160.1753 C.3     1  UNL1        0.1483
     20 O         142.7706  137.5498  158.9004 O.3     1  UNL1       -0.3786
     21 H         142.5688  138.1236  158.1448 H       1  UNL1        0.2108
     22 C         139.4880  138.6930  159.8217 C.3     1  UNL1        0.0306
     23 C         140.4062  139.8719  159.9530 C.ar    1  UNL1       -0.0238
     24 C         141.8803  139.6584  160.1298 C.ar    1  UNL1        0.0015
     25 C         142.7984  140.8372  160.2610 C.ar    1  UNL1       -0.0020
     26 C         142.2425  142.2296  160.2155 C.ar    1  UNL1        0.0060
     27 C         140.7683  142.4431  160.0387 C.ar    1  UNL1        0.0748
     28 C         139.8502  141.2643  159.9075 C.ar    1  UNL1        0.0233
     29 C         138.4517  141.7818  159.7448 C.3     1  UNL1        0.2352
     30 O         138.5055  143.2805  159.7756 O.3     1  UNL1       -0.4404
     31 C         139.9373  143.6892  159.9572 C.2     1  UNL1        0.3413
     32 O         140.4483  145.0969  160.0424 O.2     1  UNL1       -0.2449
@<TRIPOS>BOND
     1    22    23    1
     2    23    24   ar
     3    24    19    1
     4    19    20    1
     5    19    18    1
     6    18     1    1
     7     1     2    1
     8     2     3    1
     9     3     4    1
    10     4     5    1
    11     5     6    1
    12     4     7    1
    13     7     8    1
    14     8     9    1
    15     9    12    1
    16    12    13    2
    17    13    14    1
    18    14    15    2
    19    14    16    1
    20    16    17    1
    21     9    10   am
    22    10    11    2
    23    24    25   ar
    24    25    26   ar
    25    26    27   ar
    26    27    28   ar
    27    28    29    1
    28    29    30    1
    29    30    31    1
    30    31    32    2
    31    28    23   ar
    32     6     1    1
    33    17    12    1
    34    31    27    1
    35    10     4    1
    36    20    21    1
@<TRIPOS>MOLECULE
*****
 32 36 0 0 0
SMALL
GASTEIGER

@<TRIPOS>ATOM
      1 N         138.4977  139.2973  164.8803 N.3     1  UNL1       -0.2703
      2 C         138.0247  140.5408  164.1875 C.3     1  UNL1        0.0727
      3 C         138.0742  140.6305  162.6911 C.3     1  UNL1        0.0260
      4 C         138.5966  139.4768  161.8874 C.3     1  UNL1        0.0737
      5 C         139.0696  138.2333  162.5801 C.3     1  UNL1        0.0260
      6 C         139.0201  138.1435  164.0766 C.3     1  UNL1        0.0727
      7 C         139.0906  138.4098  160.9559 C.3     1  UNL1        0.0306
      8 C         138.9600  138.9229  159.5524 C.3     1  UNL1        0.0984
      9 N         138.3853  140.3070  159.6164 N.am    1  UNL1       -0.2622
     10 C         138.1607  140.6493  161.0595 C.2     1  UNL1        0.2283
     11 O         137.5988  141.9378  161.5829 O.2     1  UNL1       -0.2746
     12 C         138.0875  141.1931  158.4435 C.2     1  UNL1        0.0345
     13 C         137.1119  140.9000  157.3424 C.2     1  UNL1        0.0479
     14 C         137.1344  142.0537  156.3840 C.2     1  UNL1        0.1744
     15 O         136.3119  142.1793  155.1358 O.2     1  UNL1       -0.2913
     16 C         138.1239  143.0598  156.8926 C.3     1  UNL1        0.0752
     17 C         138.7129  142.5278  158.1655 C.3     1  UNL1        0.0497
     18 C         138.4483  139.2075  166.3768 C.3     1  UNL1        0.1063
     19 C         139.6066  139.6945  167.1961 C.3     1  UNL1        0.1483
     20 O         139.4915  139.7653  168.6900 O.3     1  UNL1       -0.3786
     21 H         140.3226  140.0986  169.0628 H       1  UNL1        0.2108
     22 C         140.0492  142.5719  166.4715 C.3     1  UNL1        0.0306
     23 C         141.1013  141.5494  166.1591 C.ar    1  UNL1       -0.0238
     24 C         140.8800  140.1108  166.5214 C.ar    1  UNL1        0.0015
     25 C         141.9322  139.0883  166.2090 C.ar    1  UNL1       -0.0020
     26 C         143.2056  139.5045  165.5344 C.ar    1  UNL1        0.0060
     27 C         143.4268  140.9431  165.1721 C.ar    1  UNL1        0.0748
     28 C         142.3747  141.9656  165.4845 C.ar    1  UNL1        0.0233
     29 C         142.8704  143.3000  165.0116 C.3     1  UNL1        0.2352
     30 O         144.2288  143.1024  164.4070 O.3     1  UNL1       -0.4404
     31 C         144.5727  141.6457  164.5062 C.2     1  UNL1        0.3413
     32 O         145.8400  141.0042  164.0241 O.2     1  UNL1       -0.2449
@<TRIPOS>BOND
     1    22    23    1
     2    23    24   ar
     3    24    19    1
     4    19    20    1
     5    19    18    1
     6    18     1    1
     7     1     2    1
     8     2     3    1
     9     3     4    1
    10     4     5    1
    11     5     6    1
    12     4     7    1
    13     7     8    1
    14     8     9    1
    15     9    12    1
    16    12    13    2
    17    13    14    1
    18    14    15    2
    19    14    16    1
    20    16    17    1
    21     9    10   am
    22    10    11    2
    23    24    25   ar
    24    25    26   ar
    25    26    27   ar
    26    27    28   ar
    27    28    29    1
    28    29    30    1
    29    30    31    1
    30    31    32    2
    31    28    23   ar
    32     6     1    1
    33    17    12    1
    34    31    27    1
    35    10     4    1
    36    20    21    1
@<TRIPOS>MOLECULE
*****
 32 36 0 0 0
SMALL
GASTEIGER

@<TRIPOS>ATOM
      1 N         138.7356  141.2597  163.9340 N.3     1  UNL1       -0.2703
      2 C         139.1065  140.9805  162.5076 C.3     1  UNL1        0.0727
      3 C         139.4873  142.1100  161.5970 C.3     1  UNL1        0.0260
      4 C         139.4971  143.5185  162.1126 C.3     1  UNL1        0.0737
      5 C         139.1262  143.7976  163.5389 C.3     1  UNL1        0.0260
      6 C         138.7454  142.6682  164.4496 C.3     1  UNL1        0.0727
      7 C         139.5523  144.9707  162.4844 C.3     1  UNL1        0.0306
      8 C         139.9789  145.7438  161.2717 C.3     1  UNL1        0.0984
      9 N         140.1874  144.7694  160.1505 N.am    1  UNL1       -0.2622
     10 C         139.8896  143.3941  160.6702 C.2     1  UNL1        0.2283
     11 O         139.9702  142.1184  159.8853 O.2     1  UNL1       -0.2746
     12 C         140.6179  145.1103  158.7548 C.2     1  UNL1        0.0345
     13 C         141.7172  144.4423  157.9832 C.2     1  UNL1        0.0479
     14 C         141.8035  145.0983  156.6370 C.2     1  UNL1        0.1744
     15 O         142.7666  144.7431  155.5432 O.2     1  UNL1       -0.2913
     16 C         140.7577  146.1719  156.5765 C.3     1  UNL1        0.0752
     17 C         140.0250  146.1793  157.8855 C.3     1  UNL1        0.0497
     18 C         138.3548  140.1302  164.8447 C.3     1  UNL1        0.1063
     19 C         139.3933  139.4842  165.7131 C.3     1  UNL1        0.1483
     20 O         140.0661  138.2209  165.2643 O.3     1  UNL1       -0.3786
     21 H         140.7054  137.9385  165.9369 H       1  UNL1        0.2108
     22 C         141.8108  141.2483  165.9233 C.3     1  UNL1        0.0306
     23 C         140.9678  140.9835  167.1355 C.ar    1  UNL1       -0.0238
     24 C         139.7591  140.1015  167.0304 C.ar    1  UNL1        0.0015
     25 C         138.9162  139.8368  168.2426 C.ar    1  UNL1       -0.0020
     26 C         139.2820  140.4541  169.5598 C.ar    1  UNL1        0.0060
     27 C         140.4906  141.3361  169.6649 C.ar    1  UNL1        0.0748
     28 C         141.3336  141.6008  168.4527 C.ar    1  UNL1        0.0233
     29 C         142.4586  142.5059  168.8591 C.3     1  UNL1        0.2352
     30 O         142.3110  142.8005  170.3225 O.3     1  UNL1       -0.4404
     31 C         141.0947  142.0775  170.8204 C.2     1  UNL1        0.3413
     32 O         140.5739  142.0932  172.2270 O.2     1  UNL1       -0.2449
@<TRIPOS>BOND
     1    22    23    1
     2    23    24   ar
     3    24    19    1
     4    19    20    1
     5    19    18    1
     6    18     1    1
     7     1     2    1
     8     2     3    1
     9     3     4    1
    10     4     5    1
    11     5     6    1
    12     4     7    1
    13     7     8    1
    14     8     9    1
    15     9    12    1
    16    12    13    2
    17    13    14    1
    18    14    15    2
    19    14    16    1
    20    16    17    1
    21     9    10   am
    22    10    11    2
    23    24    25   ar
    24    25    26   ar
    25    26    27   ar
    26    27    28   ar
    27    28    29    1
    28    29    30    1
    29    30    31    1
    30    31    32    2
    31    28    23   ar
    32     6     1    1
    33    17    12    1
    34    31    27    1
    35    10     4    1
    36    20    21    1
@<TRIPOS>MOLECULE
*****
 32 36 0 0 0
SMALL
GASTEIGER

@<TRIPOS>ATOM
      1 N         142.8445  138.8958  164.9535 N.3     1  UNL1       -0.2703
      2 C         141.7473  138.2400  164.1687 C.3     1  UNL1        0.0727
      3 C         141.8175  138.1996  162.6709 C.3     1  UNL1        0.0260
      4 C         142.9850  138.8149  161.9579 C.3     1  UNL1        0.0737
      5 C         144.0823  139.4707  162.7428 C.3     1  UNL1        0.0260
      6 C         144.0120  139.5111  164.2405 C.3     1  UNL1        0.0727
      7 C         144.0842  139.3849  161.1111 C.3     1  UNL1        0.0306
      8 C         143.7469  139.1196  159.6737 C.3     1  UNL1        0.0984
      9 N         142.4393  138.3857  159.6322 N.am    1  UNL1       -0.2622
     10 C         141.9685  138.1974  161.0439 C.2     1  UNL1        0.2283
     11 O         140.7033  137.5119  161.4673 O.2     1  UNL1       -0.2746
     12 C         141.7277  137.9216  158.3961 C.2     1  UNL1        0.0345
     13 C         140.2882  138.1759  158.0596 C.2     1  UNL1        0.0479
     14 C         140.0014  137.5332  156.7350 C.2     1  UNL1        0.1744
     15 O         138.6836  137.5407  156.0182 O.2     1  UNL1       -0.2913
     16 C         141.2635  136.8816  156.2528 C.3     1  UNL1        0.0752
     17 C         142.3304  137.1217  157.2795 C.3     1  UNL1        0.0497
     18 C         142.7742  138.9363  166.4513 C.3     1  UNL1        0.1063
     19 C         142.0711  140.0688  167.1389 C.3     1  UNL1        0.1483
     20 O         142.1927  140.2358  168.6246 O.3     1  UNL1       -0.3786
     21 H         141.6810  141.0103  168.9059 H       1  UNL1        0.2108
     22 C         143.3369  142.5389  166.0003 C.3     1  UNL1        0.0306
     23 C         141.8791  142.2696  165.7714 C.ar    1  UNL1       -0.0238
     24 C         141.2462  141.0346  166.3407 C.ar    1  UNL1        0.0015
     25 C         139.7885  140.7652  166.1118 C.ar    1  UNL1       -0.0020
     26 C         138.9636  141.7309  165.3136 C.ar    1  UNL1        0.0060
     27 C         139.5966  142.9659  164.7444 C.ar    1  UNL1        0.0748
     28 C         141.0543  143.2353  164.9732 C.ar    1  UNL1        0.0233
     29 C         141.3994  144.5269  164.2931 C.3     1  UNL1        0.2352
     30 O         140.1549  145.0559  163.6439 O.3     1  UNL1       -0.4404
     31 C         139.0407  144.0911  163.9228 C.2     1  UNL1        0.3413
     32 O         137.6201  144.2276  163.4611 O.2     1  UNL1       -0.2449
@<TRIPOS>BOND
     1    22    23    1
     2    23    24   ar
     3    24    19    1
     4    19    20    1
     5    19    18    1
     6    18     1    1
     7     1     2    1
     8     2     3    1
     9     3     4    1
    10     4     5    1
    11     5     6    1
    12     4     7    1
    13     7     8    1
    14     8     9    1
    15     9    12    1
    16    12    13    2
    17    13    14    1
    18    14    15    2
    19    14    16    1
    20    16    17    1
    21     9    10   am
    22    10    11    2
    23    24    25   ar
    24    25    26   ar
    25    26    27   ar
    26    27    28   ar
    27    28    29    1
    28    29    30    1
    29    30    31    1
    30    31    32    2
    31    28    23   ar
    32     6     1    1
    33    17    12    1
    34    31    27    1
    35    10     4    1
    36    20    21    1
@<TRIPOS>MOLECULE
*****
 32 36 0 0 0
SMALL
GASTEIGER

@<TRIPOS>ATOM
      1 N         140.1998  138.5011  162.3875 N.3     1  UNL1       -0.2703
      2 C         141.2832  138.9835  163.3060 C.3     1  UNL1        0.0727
      3 C         140.9763  139.2589  164.7481 C.3     1  UNL1        0.0260
      4 C         139.5860  139.0518  165.2719 C.3     1  UNL1        0.0737
      5 C         138.5026  138.5694  164.3535 C.3     1  UNL1        0.0260
      6 C         138.8095  138.2940  162.9113 C.3     1  UNL1        0.0727
      7 C         138.2502  138.8917  165.9353 C.3     1  UNL1        0.0306
      8 C         138.3997  139.2766  167.3774 C.3     1  UNL1        0.0984
      9 N         139.8279  139.6747  167.6052 N.am    1  UNL1       -0.2622
     10 C         140.5610  139.5358  166.3040 C.2     1  UNL1        0.2283
     11 O         142.0141  139.8292  166.0751 O.2     1  UNL1       -0.2746
     12 C         140.4190  140.1314  168.9059 C.2     1  UNL1        0.0345
     13 C         139.8217  141.1425  169.8391 C.2     1  UNL1        0.0479
     14 C         140.7448  141.2933  171.0117 C.2     1  UNL1        0.1744
     15 O         140.5366  142.2024  172.1866 O.2     1  UNL1       -0.2913
     16 C         141.9127  140.3754  170.8033 C.3     1  UNL1        0.0752
     17 C         141.7113  139.6573  169.5018 C.3     1  UNL1        0.0497
     18 C         140.5067  138.2257  160.9453 C.3     1  UNL1        0.1063
     19 C         140.8770  139.3537  160.0286 C.3     1  UNL1        0.1483
     20 O         140.6890  139.2091  158.5475 O.3     1  UNL1       -0.3786
     21 H         140.9754  140.0230  158.1042 H       1  UNL1        0.2108
     22 C         139.0264  141.5582  160.8745 C.3     1  UNL1        0.0306
     23 C         140.5099  141.7287  161.0160 C.ar    1  UNL1       -0.0238
     24 C         141.4352  140.6265  160.5931 C.ar    1  UNL1        0.0015
     25 C         142.9188  140.7969  160.7345 C.ar    1  UNL1       -0.0020
     26 C         143.4770  142.0696  161.2990 C.ar    1  UNL1        0.0060
     27 C         142.5518  143.1718  161.7219 C.ar    1  UNL1        0.0748
     28 C         141.0682  143.0013  161.5804 C.ar    1  UNL1        0.0233
     29 C         140.4083  144.2528  162.0789 C.3     1  UNL1        0.2352
     30 O         141.4839  145.1966  162.5284 O.3     1  UNL1       -0.4404
     31 C         142.8086  144.5285  162.3078 C.2     1  UNL1        0.3413
     32 O         144.1541  145.1143  162.6185 O.2     1  UNL1       -0.2449
@<TRIPOS>BOND
     1    22    23    1
     2    23    24   ar
     3    24    19    1
     4    19    20    1
     5    19    18    1
     6    18     1    1
     7     1     2    1
     8     2     3    1
     9     3     4    1
    10     4     5    1
    11     5     6    1
    12     4     7    1
    13     7     8    1
    14     8     9    1
    15     9    12    1
    16    12    13    2
    17    13    14    1
    18    14    15    2
    19    14    16    1
    20    16    17    1
    21     9    10   am
    22    10    11    2
    23    24    25   ar
    24    25    26   ar
    25    26    27   ar
    26    27    28   ar
    27    28    29    1
    28    29    30    1
    29    30    31    1
    30    31    32    2
    31    28    23   ar
    32     6     1    1
    33    17    12    1
    34    31    27    1
    35    10     4    1
    36    20    21    1
@<TRIPOS>MOLECULE
*****
 32 36 0 0 0
SMALL
GASTEIGER

@<TRIPOS>ATOM
      1 N         144.8920  141.5460  163.1714 N.3     1  UNL1       -0.2703
      2 C         144.4673  141.8963  161.7761 C.3     1  UNL1        0.0727
      3 C         143.8937  140.8396  160.8793 C.3     1  UNL1        0.0260
      4 C         143.7447  139.4327  161.3777 C.3     1  UNL1        0.0737
      5 C         144.1694  139.0825  162.7731 C.3     1  UNL1        0.0260
      6 C         144.7430  140.1391  163.6699 C.3     1  UNL1        0.0727
      7 C         143.5363  137.9909  161.7351 C.3     1  UNL1        0.0306
      8 C         142.9416  137.2994  160.5442 C.3     1  UNL1        0.0984
      9 N         142.7824  138.3139  159.4508 N.am    1  UNL1       -0.2622
     10 C         143.2787  139.6323  159.9659 C.2     1  UNL1        0.2283
     11 O         143.3046  140.9237  159.2033 O.2     1  UNL1       -0.2746
     12 C         142.2248  138.0554  158.0826 C.2     1  UNL1        0.0345
     13 C         140.7709  138.0201  157.7153 C.2     1  UNL1        0.0479
     14 C         140.6706  137.7297  156.2471 C.2     1  UNL1        0.1744
     15 O         139.4013  137.6053  155.4575 O.2     1  UNL1       -0.2913
     16 C         142.0626  137.5853  155.7070 C.3     1  UNL1        0.0752
     17 C         143.0230  137.7866  156.8415 C.3     1  UNL1        0.0497
     18 C         145.4656  142.6027  164.0684 C.3     1  UNL1        0.1063
     19 C         144.5572  143.4319  164.9269 C.3     1  UNL1        0.1483
     20 O         145.0627  144.0071  166.2167 O.3     1  UNL1       -0.3786
     21 H         144.3541  144.5124  166.6451 H       1  UNL1        0.2108
     22 C         142.3198  141.8044  166.0869 C.3     1  UNL1        0.0306
     23 C         142.0244  142.8722  165.0756 C.ar    1  UNL1       -0.0238
     24 C         143.1431  143.6859  164.4956 C.ar    1  UNL1        0.0015
     25 C         142.8477  144.7536  163.4843 C.ar    1  UNL1       -0.0020
     26 C         141.4337  145.0076  163.0530 C.ar    1  UNL1        0.0060
     27 C         140.3151  144.1939  163.6330 C.ar    1  UNL1        0.0748
     28 C         140.6104  143.1262  164.6443 C.ar    1  UNL1        0.0233
     29 C         139.3110  142.4889  165.0385 C.3     1  UNL1        0.2352
     30 O         138.2125  143.1627  164.2708 O.3     1  UNL1       -0.4404
     31 C         138.8331  144.2165  163.4022 C.2     1  UNL1        0.3413
     32 O         138.1004  145.1321  162.4669 O.2     1  UNL1       -0.2449
@<TRIPOS>BOND
     1    22    23    1
     2    23    24   ar
     3    24    19    1
     4    19    20    1
     5    19    18    1
     6    18     1    1
     7     1     2    1
     8     2     3    1
     9     3     4    1
    10     4     5    1
    11     5     6    1
    12     4     7    1
    13     7     8    1
    14     8     9    1
    15     9    12    1
    16    12    13    2
    17    13    14    1
    18    14    15    2
    19    14    16    1
    20    16    17    1
    21     9    10   am
    22    10    11    2
    23    24    25   ar
    24    25    26   ar
    25    26    27   ar
    26    27    28   ar
    27    28    29    1
    28    29    30    1
    29    30    31    1
    30    31    32    2
    31    28    23   ar
    32     6     1    1
    33    17    12    1
    34    31    27    1
    35    10     4    1
    36    20    21    1
@<TRIPOS>MOLECULE
*****
 32 36 0 0 0
SMALL
GASTEIGER

@<TRIPOS>ATOM
      1 N         138.4716  142.4343  162.3207 N.3     1  UNL1       -0.2703
      2 C         139.3657  142.9655  163.4016 C.3     1  UNL1        0.0727
      3 C         139.5461  142.1913  164.6736 C.3     1  UNL1        0.0260
      4 C         138.8324  140.8858  164.8647 C.3     1  UNL1        0.0737
      5 C         137.9383  140.3546  163.7838 C.3     1  UNL1        0.0260
      6 C         137.7579  141.1289  162.5118 C.3     1  UNL1        0.0727
      7 C         138.1875  139.5729  165.1967 C.3     1  UNL1        0.0306
      8 C         138.6460  139.1642  166.5653 C.3     1  UNL1        0.0984
      9 N         139.5743  140.2246  167.0790 N.am    1  UNL1       -0.2622
     10 C         139.6895  141.2886  166.0280 C.2     1  UNL1        0.2283
     11 O         140.5165  142.5363  166.1235 O.2     1  UNL1       -0.2746
     12 C         140.2658  140.2215  168.4100 C.2     1  UNL1        0.0345
     13 C         139.7195  140.7839  169.6888 C.2     1  UNL1        0.0479
     14 C         140.7412  140.5654  170.7650 C.2     1  UNL1        0.1744
     15 O         140.6084  140.9728  172.2026 O.2     1  UNL1       -0.2913
     16 C         141.9190  139.8681  170.1515 C.3     1  UNL1        0.0752
     17 C         141.6252  139.6556  168.6960 C.3     1  UNL1        0.0497
     18 C         138.2911  143.2086  161.0487 C.3     1  UNL1        0.1063
     19 C         139.3980  143.2585  160.0376 C.3     1  UNL1        0.1483
     20 O         139.6493  144.5178  159.2623 O.3     1  UNL1       -0.3786
     21 H         140.3943  144.3811  158.6563 H       1  UNL1        0.2108
     22 C         142.1677  143.1340  161.1837 C.3     1  UNL1        0.0306
     23 C         141.6384  141.9870  160.3749 C.ar    1  UNL1       -0.0238
     24 C         140.2536  142.0492  159.8018 C.ar    1  UNL1        0.0015
     25 C         139.7244  140.9022  158.9930 C.ar    1  UNL1       -0.0020
     26 C         140.5799  139.6929  158.7573 C.ar    1  UNL1        0.0060
     27 C         141.9647  139.6306  159.3303 C.ar    1  UNL1        0.0748
     28 C         142.4940  140.7777  160.1391 C.ar    1  UNL1        0.0233
     29 C         143.8877  140.4339  160.5742 C.3     1  UNL1        0.2352
     30 O         144.2199  139.0744  160.0343 O.3     1  UNL1       -0.4404
     31 C         143.0314  138.5780  159.2655 C.2     1  UNL1        0.3413
     32 O         142.9277  137.2602  158.5565 O.2     1  UNL1       -0.2449
@<TRIPOS>BOND
     1    22    23    1
     2    23    24   ar
     3    24    19    1
     4    19    20    1
     5    19    18    1
     6    18     1    1
     7     1     2    1
     8     2     3    1
     9     3     4    1
    10     4     5    1
    11     5     6    1
    12     4     7    1
    13     7     8    1
    14     8     9    1
    15     9    12    1
    16    12    13    2
    17    13    14    1
    18    14    15    2
    19    14    16    1
    20    16    17    1
    21     9    10   am
    22    10    11    2
    23    24    25   ar
    24    25    26   ar
    25    26    27   ar
    26    27    28   ar
    27    28    29    1
    28    29    30    1
    29    30    31    1
    30    31    32    2
    31    28    23   ar
    32     6     1    1
    33    17    12    1
    34    31    27    1
    35    10     4    1
    36    20    21    1
