@<TRIPOS>MOLECULE
*****
 41 45 0 0 0
SMALL
GASTEIGER

@<TRIPOS>ATOM
      1 C         140.9449  138.8354  160.9762 C.ar    1  UNL1        0.0002
      2 C         139.4452  138.8658  160.9870 C.ar    1  UNL1        0.0000
      3 C         138.7184  139.6474  162.0409 C.ar    1  UNL1        0.0000
      4 C         139.4913  140.3988  163.0841 C.ar    1  UNL1        0.0000
      5 C         140.9909  140.3684  163.0733 C.ar    1  UNL1        0.0014
      6 C         141.7177  139.5867  162.0194 C.ar    1  UNL1        0.0000
      7 C         141.7637  141.1197  164.1165 C.ar    1  UNL1        0.0174
      8 C         141.8416  140.5911  165.5181 C.ar    1  UNL1       -0.0012
      9 C         142.6145  141.3424  166.5612 C.ar    1  UNL1       -0.0025
     10 C         143.3095  142.6224  166.2028 C.ar    1  UNL1       -0.0012
     11 C         143.2317  143.1511  164.8012 C.ar    1  UNL1        0.0174
     12 C         143.9267  144.4311  164.4428 C.ar    1  UNL1        0.0031
     13 C         143.8488  144.9598  163.0413 C.ar    1  UNL1        0.0207
     14 C         143.0760  144.2085  161.9981 C.ar    1  UNL1        0.0988
     15 N         142.3810  142.9285  162.3565 N.ar    1  UNL1       -0.2438
     16 C         142.4588  142.3998  163.7580 C.ar    1  UNL1        0.0812
     17 C         142.6923  140.8137  167.9628 C.3     1  UNL1        0.1294
     18 C         142.5274  139.4158  167.4446 C.3     1  UNL1        0.0281
     19 C         142.8571  142.2116  168.4811 C.3     1  UNL1        0.0281
     20 S         142.7701  140.2849  169.3644 S.O2    1  UNL1       -0.0079
     21 C         142.8479  139.7562  170.7659 C.3     1  UNL1        0.1763
     22 O         143.0007  138.9025  168.8300 O.2     1  UNL1       -0.1727
     23 O         142.5394  141.6674  169.8987 O.2     1  UNL1       -0.1727
     24 C         142.1271  138.7332  158.6650 C.2     1  UNL1        0.0561
     25 C         141.6716  138.0537  159.9223 C.2     1  UNL1        0.0047
     26 C         143.7098  134.7830  155.5390 C.3     1  UNL1        0.0773
     27 C         143.5814  136.1357  156.1742 C.ar    1  UNL1        0.1812
     28 N         144.3632  137.3613  155.8043 N.ar    1  UNL1       -0.0602
     29 O         143.9136  138.4835  156.6924 O.2     1  UNL1       -0.3328
     30 C         142.8539  137.9515  157.6111 C.ar    1  UNL1        0.2597
     31 N         142.6486  136.5005  157.2908 N.ar    1  UNL1       -0.1911
     32 C         141.8559  140.1943  158.4616 C.ar    1  UNL1        0.0047
     33 C         142.8894  141.2101  158.8491 C.ar    1  UNL1        0.0015
     34 C         142.6181  142.6713  158.6457 C.ar    1  UNL1        0.0183
     35 C         141.3133  143.1167  158.0548 C.ar    1  UNL1        0.1057
     36 C         140.2798  142.1010  157.6673 C.ar    1  UNL1        0.0183
     37 C         140.5511  140.6398  157.8707 C.ar    1  UNL1        0.0015
     38 S         141.0420  144.5779  157.8513 S.O2    1  UNL1        0.0104
     39 C         140.7707  146.0391  157.6479 C.3     1  UNL1        0.1816
     40 O         142.3991  144.9063  158.3996 O.2     1  UNL1       -0.1686
     41 O         139.6850  144.2496  157.3031 O.2     1  UNL1       -0.1686
@<TRIPOS>BOND
     1    26    27    1
     2    27    28   ar
     3    28    29   ar
     4    29    30   ar
     5    30    24    1
     6    24    25    2
     7    25     1    1
     8     1     2   ar
     9     2     3   ar
    10     3     4   ar
    11     4     5   ar
    12     5     7    1
    13     7     8   ar
    14     8     9   ar
    15     9    17    1
    16    17    18    1
    17    17    19    1
    18    17    20    1
    19    20    21    1
    20    20    22    2
    21    20    23    2
    22     9    10   ar
    23    10    11   ar
    24    11    12   ar
    25    12    13   ar
    26    13    14   ar
    27    14    15   ar
    28    15    16   ar
    29     5     6   ar
    30    24    32    1
    31    32    33   ar
    32    33    34   ar
    33    34    35   ar
    34    35    38    1
    35    38    39    1
    36    38    40    2
    37    38    41    2
    38    35    36   ar
    39    36    37   ar
    40    30    31   ar
    41    31    27   ar
    42     6     1   ar
    43    37    32   ar
    44    16     7   ar
    45    16    11   ar
@<TRIPOS>MOLECULE
*****
 41 45 0 0 0
SMALL
GASTEIGER

@<TRIPOS>ATOM
      1 C         142.7239  139.5020  160.9573 C.ar    1  UNL1        0.0002
      2 C         142.0469  138.1639  160.9216 C.ar    1  UNL1        0.0000
      3 C         140.9700  137.8415  161.9147 C.ar    1  UNL1        0.0000
      4 C         140.5700  138.8572  162.9435 C.ar    1  UNL1        0.0000
      5 C         141.2469  140.1952  162.9792 C.ar    1  UNL1        0.0014
      6 C         142.3239  140.5177  161.9861 C.ar    1  UNL1        0.0000
      7 C         140.8469  141.2109  164.0080 C.ar    1  UNL1        0.0174
      8 C         141.5393  141.2439  165.3382 C.ar    1  UNL1       -0.0012
      9 C         141.1392  142.2595  166.3669 C.ar    1  UNL1       -0.0025
     10 C         140.0468  143.2422  166.0656 C.ar    1  UNL1       -0.0012
     11 C         139.3544  143.2093  164.7353 C.ar    1  UNL1        0.0174
     12 C         138.2619  144.1920  164.4339 C.ar    1  UNL1        0.0031
     13 C         137.5695  144.1590  163.1037 C.ar    1  UNL1        0.0207
     14 C         137.9696  143.1434  162.0749 C.ar    1  UNL1        0.0988
     15 N         139.0620  142.1607  162.3763 N.ar    1  UNL1       -0.2438
     16 C         139.7544  142.1936  163.7065 C.ar    1  UNL1        0.0812
     17 C         141.8317  142.2925  167.6972 C.3     1  UNL1        0.1294
     18 C         140.5045  142.4162  168.3850 C.3     1  UNL1        0.0281
     19 C         143.1590  142.1688  167.0094 C.3     1  UNL1        0.0281
     20 S         142.5241  142.3254  169.0274 S.O2    1  UNL1       -0.0079
     21 C         143.2165  142.3584  170.3576 C.3     1  UNL1        0.1763
     22 O         143.7999  142.7349  168.3532 O.2     1  UNL1       -0.1727
     23 O         141.2483  141.9159  169.7016 O.2     1  UNL1       -0.1727
     24 C         143.4352  140.2899  158.5859 C.2     1  UNL1        0.0561
     25 C         143.8008  139.8244  159.9642 C.2     1  UNL1        0.0047
     26 C         147.3066  142.7934  156.0120 C.3     1  UNL1        0.0773
     27 C         146.2917  141.7631  156.4097 C.ar    1  UNL1        0.1812
     28 N         146.0472  140.4539  155.7195 N.ar    1  UNL1       -0.0602
     29 O         144.9474  139.7426  156.4508 O.2     1  UNL1       -0.3328
     30 C         144.5121  140.6123  157.5929 C.ar    1  UNL1        0.2597
     31 N         145.3430  141.8610  157.5675 N.ar    1  UNL1       -0.1911
     32 C         141.9926  140.4329  158.2007 C.ar    1  UNL1        0.0047
     33 C         141.2468  141.6894  158.5397 C.ar    1  UNL1        0.0015
     34 C         139.8042  141.8324  158.1544 C.ar    1  UNL1        0.0183
     35 C         139.1074  140.7189  157.4302 C.ar    1  UNL1        0.1057
     36 C         139.8531  139.4624  157.0913 C.ar    1  UNL1        0.0183
     37 C         141.2957  139.3193  157.4765 C.ar    1  UNL1        0.0015
     38 S         137.6647  140.8619  157.0449 S.O2    1  UNL1        0.0104
     39 C         136.2221  141.0049  156.6597 C.3     1  UNL1        0.1816
     40 O         137.2561  140.2111  158.3331 O.2     1  UNL1       -0.1686
     41 O         138.0733  141.5127  155.7568 O.2     1  UNL1       -0.1686
@<TRIPOS>BOND
     1    26    27    1
     2    27    28   ar
     3    28    29   ar
     4    29    30   ar
     5    30    24    1
     6    24    25    2
     7    25     1    1
     8     1     2   ar
     9     2     3   ar
    10     3     4   ar
    11     4     5   ar
    12     5     7    1
    13     7     8   ar
    14     8     9   ar
    15     9    17    1
    16    17    18    1
    17    17    19    1
    18    17    20    1
    19    20    21    1
    20    20    22    2
    21    20    23    2
    22     9    10   ar
    23    10    11   ar
    24    11    12   ar
    25    12    13   ar
    26    13    14   ar
    27    14    15   ar
    28    15    16   ar
    29     5     6   ar
    30    24    32    1
    31    32    33   ar
    32    33    34   ar
    33    34    35   ar
    34    35    38    1
    35    38    39    1
    36    38    40    2
    37    38    41    2
    38    35    36   ar
    39    36    37   ar
    40    30    31   ar
    41    31    27   ar
    42     6     1   ar
    43    37    32   ar
    44    16     7   ar
    45    16    11   ar
@<TRIPOS>MOLECULE
*****
 41 45 0 0 0
SMALL
GASTEIGER

@<TRIPOS>ATOM
      1 C         143.9020  140.9538  162.0759 C.ar    1  UNL1        0.0002
      2 C         145.3198  141.2792  162.4421 C.ar    1  UNL1        0.0000
      3 C         145.6155  142.0158  163.7149 C.ar    1  UNL1        0.0000
      4 C         144.4934  142.4271  164.6214 C.ar    1  UNL1        0.0000
      5 C         143.0757  142.1018  164.2552 C.ar    1  UNL1        0.0014
      6 C         142.7799  141.3651  162.9824 C.ar    1  UNL1        0.0000
      7 C         141.9536  142.5131  165.1617 C.ar    1  UNL1        0.0174
      8 C         141.9551  142.0844  166.5991 C.ar    1  UNL1       -0.0012
      9 C         140.8331  142.4957  167.5057 C.ar    1  UNL1       -0.0025
     10 C         139.7095  143.3357  166.9748 C.ar    1  UNL1       -0.0012
     11 C         139.7079  143.7645  165.5373 C.ar    1  UNL1        0.0174
     12 C         138.5844  144.6045  165.0065 C.ar    1  UNL1        0.0031
     13 C         138.5829  145.0333  163.5691 C.ar    1  UNL1        0.0207
     14 C         139.7049  144.6220  162.6626 C.ar    1  UNL1        0.0988
     15 N         140.8285  143.7819  163.1934 N.ar    1  UNL1       -0.2438
     16 C         140.8300  143.3532  164.6308 C.ar    1  UNL1        0.0812
     17 C         140.8346  142.0669  168.9431 C.3     1  UNL1        0.1294
     18 C         140.4571  143.4579  169.3584 C.3     1  UNL1        0.0281
     19 C         141.2121  140.6759  168.5278 C.3     1  UNL1        0.0281
     20 S         140.8362  141.6382  170.3805 S.O2    1  UNL1       -0.0079
     21 C         140.8377  141.2095  171.8179 C.3     1  UNL1        0.1763
     22 O         139.3414  141.7576  170.4177 O.2     1  UNL1       -0.1727
     23 O         142.3309  141.5188  170.3433 O.2     1  UNL1       -0.1727
     24 C         142.4042  139.3244  160.7152 C.2     1  UNL1        0.0561
     25 C         143.6063  140.2171  160.8032 C.2     1  UNL1        0.0047
     26 C         142.9576  136.3311  156.4008 C.3     1  UNL1        0.0773
     27 C         142.3629  137.2118  157.4593 C.ar    1  UNL1        0.1812
     28 N         140.9441  137.6963  157.5084 N.ar    1  UNL1       -0.0602
     29 O         140.7869  138.5467  158.7342 O.2     1  UNL1       -0.3328
     30 C         142.1085  138.5877  159.4425 C.ar    1  UNL1        0.2597
     31 N         143.0825  137.7627  158.6546 N.ar    1  UNL1       -0.1911
     32 C         141.4976  139.1683  161.9000 C.ar    1  UNL1        0.0047
     33 C         140.2691  140.0202  162.0218 C.ar    1  UNL1        0.0015
     34 C         139.3625  139.8641  163.2067 C.ar    1  UNL1        0.0183
     35 C         139.6846  138.8560  164.2697 C.ar    1  UNL1        0.1057
     36 C         140.9131  138.0041  164.1479 C.ar    1  UNL1        0.0183
     37 C         141.8196  138.1602  162.9631 C.ar    1  UNL1        0.0015
     38 S         138.7780  138.6999  165.4546 S.O2    1  UNL1        0.0104
     39 C         137.8715  138.5438  166.6394 C.3     1  UNL1        0.1816
     40 O         138.7669  137.2139  165.2503 O.2     1  UNL1       -0.1686
     41 O         138.7892  140.1858  165.6589 O.2     1  UNL1       -0.1686
@<TRIPOS>BOND
     1    26    27    1
     2    27    28   ar
     3    28    29   ar
     4    29    30   ar
     5    30    24    1
     6    24    25    2
     7    25     1    1
     8     1     2   ar
     9     2     3   ar
    10     3     4   ar
    11     4     5   ar
    12     5     7    1
    13     7     8   ar
    14     8     9   ar
    15     9    17    1
    16    17    18    1
    17    17    19    1
    18    17    20    1
    19    20    21    1
    20    20    22    2
    21    20    23    2
    22     9    10   ar
    23    10    11   ar
    24    11    12   ar
    25    12    13   ar
    26    13    14   ar
    27    14    15   ar
    28    15    16   ar
    29     5     6   ar
    30    24    32    1
    31    32    33   ar
    32    33    34   ar
    33    34    35   ar
    34    35    38    1
    35    38    39    1
    36    38    40    2
    37    38    41    2
    38    35    36   ar
    39    36    37   ar
    40    30    31   ar
    41    31    27   ar
    42     6     1   ar
    43    37    32   ar
    44    16     7   ar
    45    16    11   ar
@<TRIPOS>MOLECULE
*****
 41 45 0 0 0
SMALL
GASTEIGER

@<TRIPOS>ATOM
      1 C         144.1572  141.9789  161.9003 C.ar    1  UNL1        0.0002
      2 C         145.5287  141.8492  162.4938 C.ar    1  UNL1        0.0000
      3 C         145.6969  141.3058  163.8817 C.ar    1  UNL1        0.0000
      4 C         144.4937  140.8920  164.6762 C.ar    1  UNL1        0.0000
      5 C         143.1223  141.0216  164.0827 C.ar    1  UNL1        0.0014
      6 C         142.9540  141.5651  162.6947 C.ar    1  UNL1        0.0000
      7 C         141.9191  140.6079  164.8771 C.ar    1  UNL1        0.0174
      8 C         141.6579  141.2249  166.2191 C.ar    1  UNL1       -0.0012
      9 C         140.4548  140.8111  167.0135 C.ar    1  UNL1       -0.0025
     10 C         139.5127  139.7803  166.4660 C.ar    1  UNL1       -0.0012
     11 C         139.7738  139.1632  165.1239 C.ar    1  UNL1        0.0174
     12 C         138.8318  138.1323  164.5764 C.ar    1  UNL1        0.0031
     13 C         139.0929  137.5153  163.2344 C.ar    1  UNL1        0.0207
     14 C         140.2961  137.9291  162.4399 C.ar    1  UNL1        0.0988
     15 N         141.2382  138.9599  162.9875 N.ar    1  UNL1       -0.2438
     16 C         140.9770  139.5770  164.3295 C.ar    1  UNL1        0.0812
     17 C         140.1936  141.4283  168.3556 C.3     1  UNL1        0.1294
     18 C         139.3699  140.2362  168.7434 C.3     1  UNL1        0.0281
     19 C         141.0174  142.6203  167.9678 C.3     1  UNL1        0.0281
     20 S         139.9325  142.0453  169.6976 S.O2    1  UNL1       -0.0079
     21 C         139.6714  142.6624  171.0396 C.3     1  UNL1        0.1763
     22 O         139.3827  140.7398  170.1909 O.2     1  UNL1       -0.1727
     23 O         140.4823  143.3508  169.2043 O.2     1  UNL1       -0.1727
     24 C         142.7770  143.3361  160.1673 C.2     1  UNL1        0.0561
     25 C         143.9889  142.5223  160.5124 C.2     1  UNL1        0.0047
     26 C         142.5460  143.6818  154.9036 C.3     1  UNL1        0.0773
     27 C         142.5026  144.0384  156.3598 C.ar    1  UNL1        0.1812
     28 N         142.1971  145.3930  156.9272 N.ar    1  UNL1       -0.0602
     29 O         142.2627  145.2948  158.4226 O.2     1  UNL1       -0.3328
     30 C         142.6088  143.8795  158.7794 C.ar    1  UNL1        0.2597
     31 N         142.7570  143.1030  157.5045 N.ar    1  UNL1       -0.1911
     32 C         141.7334  143.6065  161.2102 C.ar    1  UNL1        0.0047
     33 C         140.4745  142.7916  161.2405 C.ar    1  UNL1        0.0015
     34 C         139.4308  143.0620  162.2834 C.ar    1  UNL1        0.0183
     35 C         139.6461  144.1474  163.2961 C.ar    1  UNL1        0.1057
     36 C         140.9051  144.9623  163.2659 C.ar    1  UNL1        0.0183
     37 C         141.9487  144.6919  162.2230 C.ar    1  UNL1        0.0015
     38 S         138.6025  144.4179  164.3391 S.O2    1  UNL1        0.0104
     39 C         137.5589  144.6883  165.3820 C.3     1  UNL1        0.1816
     40 O         137.5401  144.4016  163.2803 O.2     1  UNL1       -0.1686
     41 O         139.6649  144.4342  165.3979 O.2     1  UNL1       -0.1686
@<TRIPOS>BOND
     1    26    27    1
     2    27    28   ar
     3    28    29   ar
     4    29    30   ar
     5    30    24    1
     6    24    25    2
     7    25     1    1
     8     1     2   ar
     9     2     3   ar
    10     3     4   ar
    11     4     5   ar
    12     5     7    1
    13     7     8   ar
    14     8     9   ar
    15     9    17    1
    16    17    18    1
    17    17    19    1
    18    17    20    1
    19    20    21    1
    20    20    22    2
    21    20    23    2
    22     9    10   ar
    23    10    11   ar
    24    11    12   ar
    25    12    13   ar
    26    13    14   ar
    27    14    15   ar
    28    15    16   ar
    29     5     6   ar
    30    24    32    1
    31    32    33   ar
    32    33    34   ar
    33    34    35   ar
    34    35    38    1
    35    38    39    1
    36    38    40    2
    37    38    41    2
    38    35    36   ar
    39    36    37   ar
    40    30    31   ar
    41    31    27   ar
    42     6     1   ar
    43    37    32   ar
    44    16     7   ar
    45    16    11   ar
@<TRIPOS>MOLECULE
*****
 41 45 0 0 0
SMALL
GASTEIGER

@<TRIPOS>ATOM
      1 C         139.7254  138.6821  164.3837 C.ar    1  UNL1        0.0002
      2 C         138.6322  137.9260  163.6885 C.ar    1  UNL1        0.0000
      3 C         138.6697  137.7534  162.1990 C.ar    1  UNL1        0.0000
      4 C         139.8005  138.3368  161.4046 C.ar    1  UNL1        0.0000
      5 C         140.8937  139.0928  162.0997 C.ar    1  UNL1        0.0014
      6 C         140.8562  139.2655  163.5893 C.ar    1  UNL1        0.0000
      7 C         142.0244  139.6762  161.3054 C.ar    1  UNL1        0.0174
      8 C         142.1327  139.3942  159.8361 C.ar    1  UNL1       -0.0012
      9 C         143.2634  139.9776  159.0417 C.ar    1  UNL1       -0.0025
     10 C         144.2859  140.8430  159.7166 C.ar    1  UNL1       -0.0012
     11 C         144.1777  141.1251  161.1859 C.ar    1  UNL1        0.0174
     12 C         145.2002  141.9906  161.8607 C.ar    1  UNL1        0.0031
     13 C         145.0919  142.2727  163.3300 C.ar    1  UNL1        0.0207
     14 C         143.9611  141.6893  164.1243 C.ar    1  UNL1        0.0988
     15 N         142.9387  140.8238  163.4495 N.ar    1  UNL1       -0.2438
     16 C         143.0469  140.5417  161.9803 C.ar    1  UNL1        0.0812
     17 C         143.3717  139.6955  157.5724 C.3     1  UNL1        0.1294
     18 C         142.4444  138.5269  157.7286 C.3     1  UNL1        0.0281
     19 C         144.2990  140.8641  157.4163 C.3     1  UNL1        0.0281
     20 S         143.4799  139.4133  156.1032 S.O2    1  UNL1       -0.0079
     21 C         143.5881  139.1312  154.6340 C.3     1  UNL1        0.1763
     22 O         141.9838  139.3916  155.9972 O.2     1  UNL1       -0.1727
     23 O         144.9759  139.4351  156.2092 O.2     1  UNL1       -0.1727
     24 C         139.6103  140.2299  166.4672 C.2     1  UNL1        0.0561
     25 C         139.6879  138.8547  165.8733 C.2     1  UNL1        0.0047
     26 C         140.6585  141.9368  171.3527 C.3     1  UNL1        0.0773
     27 C         140.0546  141.1872  170.2024 C.ar    1  UNL1        0.1812
     28 N         138.9754  140.1494  170.2956 N.ar    1  UNL1       -0.0602
     29 O         138.6777  139.6645  168.9076 O.2     1  UNL1       -0.3328
     30 C         139.5728  140.4026  167.9567 C.ar    1  UNL1        0.2597
     31 N         140.4237  141.3436  168.7570 N.ar    1  UNL1       -0.1911
     32 C         139.5703  141.4325  165.5716 C.ar    1  UNL1        0.0047
     33 C         140.7483  142.3588  165.5066 C.ar    1  UNL1        0.0015
     34 C         140.7083  143.5615  164.6110 C.ar    1  UNL1        0.0183
     35 C         139.4902  143.8378  163.7804 C.ar    1  UNL1        0.1057
     36 C         138.3122  142.9115  163.8454 C.ar    1  UNL1        0.0183
     37 C         138.3522  141.7089  164.7409 C.ar    1  UNL1        0.0015
     38 S         139.4502  145.0404  162.8847 S.O2    1  UNL1        0.0104
     39 C         139.4102  146.2430  161.9891 C.3     1  UNL1        0.1816
     40 O         138.0132  144.7538  162.5640 O.2     1  UNL1       -0.1686
     41 O         140.8872  145.3271  163.2054 O.2     1  UNL1       -0.1686
@<TRIPOS>BOND
     1    26    27    1
     2    27    28   ar
     3    28    29   ar
     4    29    30   ar
     5    30    24    1
     6    24    25    2
     7    25     1    1
     8     1     2   ar
     9     2     3   ar
    10     3     4   ar
    11     4     5   ar
    12     5     7    1
    13     7     8   ar
    14     8     9   ar
    15     9    17    1
    16    17    18    1
    17    17    19    1
    18    17    20    1
    19    20    21    1
    20    20    22    2
    21    20    23    2
    22     9    10   ar
    23    10    11   ar
    24    11    12   ar
    25    12    13   ar
    26    13    14   ar
    27    14    15   ar
    28    15    16   ar
    29     5     6   ar
    30    24    32    1
    31    32    33   ar
    32    33    34   ar
    33    34    35   ar
    34    35    38    1
    35    38    39    1
    36    38    40    2
    37    38    41    2
    38    35    36   ar
    39    36    37   ar
    40    30    31   ar
    41    31    27   ar
    42     6     1   ar
    43    37    32   ar
    44    16     7   ar
    45    16    11   ar
@<TRIPOS>MOLECULE
*****
 41 45 0 0 0
SMALL
GASTEIGER

@<TRIPOS>ATOM
      1 C         142.1542  143.4561  161.2271 C.ar    1  UNL1        0.0002
      2 C         141.3275  144.6975  161.0670 C.ar    1  UNL1        0.0000
      3 C         140.1490  144.9346  161.9641 C.ar    1  UNL1        0.0000
      4 C         139.7972  143.9305  163.0213 C.ar    1  UNL1        0.0000
      5 C         140.6238  142.6892  163.1815 C.ar    1  UNL1        0.0014
      6 C         141.8024  142.4519  162.2844 C.ar    1  UNL1        0.0000
      7 C         140.2720  141.6850  164.2388 C.ar    1  UNL1        0.0174
      8 C         140.4093  142.0433  165.6889 C.ar    1  UNL1       -0.0012
      9 C         140.0575  141.0392  166.7462 C.ar    1  UNL1       -0.0025
     10 C         139.5682  139.6767  166.3534 C.ar    1  UNL1       -0.0012
     11 C         139.4308  139.3183  164.9033 C.ar    1  UNL1        0.0174
     12 C         138.9416  137.9559  164.5106 C.ar    1  UNL1        0.0031
     13 C         138.8043  137.5975  163.0605 C.ar    1  UNL1        0.0207
     14 C         139.1561  138.6017  162.0032 C.ar    1  UNL1        0.0988
     15 N         139.6453  139.9642  162.3960 N.ar    1  UNL1       -0.2438
     16 C         139.7827  140.3225  163.8460 C.ar    1  UNL1        0.0812
     17 C         140.1948  141.3975  168.1963 C.3     1  UNL1        0.1294
     18 C         139.5447  140.1009  168.5783 C.3     1  UNL1        0.0281
     19 C         140.8450  142.6942  167.8143 C.3     1  UNL1        0.0281
     20 S         140.3322  141.7558  169.6464 S.O2    1  UNL1       -0.0079
     21 C         140.4696  142.1141  171.0964 C.3     1  UNL1        0.1763
     22 O         140.2969  143.2124  169.2898 O.2     1  UNL1       -0.1727
     23 O         140.3675  140.2993  170.0029 O.2     1  UNL1       -0.1727
     24 C         143.1283  142.6465  158.9587 C.2     1  UNL1        0.0561
     25 C         143.3327  143.2189  160.3300 C.2     1  UNL1        0.0047
     26 C         146.1084  141.0780  154.8919 C.3     1  UNL1        0.0773
     27 C         145.6766  141.6883  156.1922 C.ar    1  UNL1        0.1812
     28 N         146.5641  142.4003  157.1698 N.ar    1  UNL1       -0.0602
     29 O         145.7175  142.8459  158.3252 O.2     1  UNL1       -0.3328
     30 C         144.3068  142.4093  158.0616 C.ar    1  UNL1        0.2597
     31 N         144.2816  141.6939  156.7434 N.ar    1  UNL1       -0.1911
     32 C         141.7453  142.3113  158.4845 C.ar    1  UNL1        0.0047
     33 C         140.9754  143.2992  157.6590 C.ar    1  UNL1        0.0015
     34 C         139.5924  142.9639  157.1848 C.ar    1  UNL1        0.0183
     35 C         138.9793  141.6407  157.5360 C.ar    1  UNL1        0.1057
     36 C         139.7492  140.6528  158.3614 C.ar    1  UNL1        0.0183
     37 C         141.1321  140.9881  158.8357 C.ar    1  UNL1        0.0015
     38 S         137.5962  141.3054  157.0618 S.O2    1  UNL1        0.0104
     39 C         136.2133  140.9701  156.5876 C.3     1  UNL1        0.1816
     40 O         137.2521  142.7651  157.0333 O.2     1  UNL1       -0.1686
     41 O         137.9404  139.8457  157.0902 O.2     1  UNL1       -0.1686
@<TRIPOS>BOND
     1    26    27    1
     2    27    28   ar
     3    28    29   ar
     4    29    30   ar
     5    30    24    1
     6    24    25    2
     7    25     1    1
     8     1     2   ar
     9     2     3   ar
    10     3     4   ar
    11     4     5   ar
    12     5     7    1
    13     7     8   ar
    14     8     9   ar
    15     9    17    1
    16    17    18    1
    17    17    19    1
    18    17    20    1
    19    20    21    1
    20    20    22    2
    21    20    23    2
    22     9    10   ar
    23    10    11   ar
    24    11    12   ar
    25    12    13   ar
    26    13    14   ar
    27    14    15   ar
    28    15    16   ar
    29     5     6   ar
    30    24    32    1
    31    32    33   ar
    32    33    34   ar
    33    34    35   ar
    34    35    38    1
    35    38    39    1
    36    38    40    2
    37    38    41    2
    38    35    36   ar
    39    36    37   ar
    40    30    31   ar
    41    31    27   ar
    42     6     1   ar
    43    37    32   ar
    44    16     7   ar
    45    16    11   ar
@<TRIPOS>MOLECULE
*****
 41 45 0 0 0
SMALL
GASTEIGER

@<TRIPOS>ATOM
      1 C         140.3897  139.4121  160.9898 C.ar    1  UNL1        0.0002
      2 C         141.0915  138.1035  160.7769 C.ar    1  UNL1        0.0000
      3 C         142.2408  137.7165  161.6596 C.ar    1  UNL1        0.0000
      4 C         142.6885  138.6381  162.7552 C.ar    1  UNL1        0.0000
      5 C         141.9867  139.9466  162.9681 C.ar    1  UNL1        0.0014
      6 C         140.8373  140.3336  162.0854 C.ar    1  UNL1        0.0000
      7 C         142.4344  140.8681  164.0638 C.ar    1  UNL1        0.0174
      8 C         142.3780  140.4169  165.4931 C.ar    1  UNL1       -0.0012
      9 C         142.8256  141.3384  166.5888 C.ar    1  UNL1       -0.0025
     10 C         143.3297  142.7111  166.2550 C.ar    1  UNL1       -0.0012
     11 C         143.3861  143.1624  164.8256 C.ar    1  UNL1        0.0174
     12 C         143.8902  144.5352  164.4918 C.ar    1  UNL1        0.0031
     13 C         143.9466  144.9864  163.0625 C.ar    1  UNL1        0.0207
     14 C         143.4989  144.0649  161.9668 C.ar    1  UNL1        0.0988
     15 N         142.9949  142.6921  162.3006 N.ar    1  UNL1       -0.2438
     16 C         142.9385  142.2409  163.7299 C.ar    1  UNL1        0.0812
     17 C         142.7692  140.8871  168.0182 C.3     1  UNL1        0.1294
     18 C         142.5449  139.4754  167.5636 C.3     1  UNL1        0.0281
     19 C         142.9935  142.2988  168.4728 C.3     1  UNL1        0.0281
     20 S         142.7128  140.4358  169.4476 S.O2    1  UNL1       -0.0079
     21 C         142.6563  139.9845  170.8769 C.3     1  UNL1        0.1763
     22 O         142.4658  141.8494  169.8842 O.2     1  UNL1       -0.1727
     23 O         142.9597  139.0222  169.0110 O.2     1  UNL1       -0.1727
     24 C         139.4927  140.5484  158.8325 C.2     1  UNL1        0.0561
     25 C         139.2403  139.7990  160.1071 C.2     1  UNL1        0.0047
     26 C         136.5050  143.1102  155.3123 C.3     1  UNL1        0.0773
     27 C         136.9700  142.1130  156.3317 C.ar    1  UNL1        0.1812
     28 N         136.1792  140.9489  156.8511 N.ar    1  UNL1       -0.0602
     29 O         137.0280  140.2211  157.8511 O.2     1  UNL1       -0.3328
     30 C         138.3433  140.9354  157.9498 C.ar    1  UNL1        0.2597
     31 N         138.3075  142.1046  157.0107 N.ar    1  UNL1       -0.1911
     32 C         140.8945  140.9108  158.4405 C.ar    1  UNL1        0.0047
     33 C         141.7187  139.9530  157.6322 C.ar    1  UNL1        0.0015
     34 C         143.1205  140.3155  157.2403 C.ar    1  UNL1        0.0183
     35 C         143.6980  141.6358  157.6566 C.ar    1  UNL1        0.1057
     36 C         142.8738  142.5936  158.4649 C.ar    1  UNL1        0.0183
     37 C         141.4721  142.2311  158.8568 C.ar    1  UNL1        0.0015
     38 S         145.0999  141.9983  157.2646 S.O2    1  UNL1        0.0104
     39 C         146.5016  142.3608  156.8728 C.3     1  UNL1        0.1816
     40 O         144.8824  141.3803  155.9153 O.2     1  UNL1       -0.1686
     41 O         145.3173  142.6162  158.6140 O.2     1  UNL1       -0.1686
@<TRIPOS>BOND
     1    26    27    1
     2    27    28   ar
     3    28    29   ar
     4    29    30   ar
     5    30    24    1
     6    24    25    2
     7    25     1    1
     8     1     2   ar
     9     2     3   ar
    10     3     4   ar
    11     4     5   ar
    12     5     7    1
    13     7     8   ar
    14     8     9   ar
    15     9    17    1
    16    17    18    1
    17    17    19    1
    18    17    20    1
    19    20    21    1
    20    20    22    2
    21    20    23    2
    22     9    10   ar
    23    10    11   ar
    24    11    12   ar
    25    12    13   ar
    26    13    14   ar
    27    14    15   ar
    28    15    16   ar
    29     5     6   ar
    30    24    32    1
    31    32    33   ar
    32    33    34   ar
    33    34    35   ar
    34    35    38    1
    35    38    39    1
    36    38    40    2
    37    38    41    2
    38    35    36   ar
    39    36    37   ar
    40    30    31   ar
    41    31    27   ar
    42     6     1   ar
    43    37    32   ar
    44    16     7   ar
    45    16    11   ar
@<TRIPOS>MOLECULE
*****
 41 45 0 0 0
SMALL
GASTEIGER

@<TRIPOS>ATOM
      1 C         142.1100  143.5049  161.2251 C.ar    1  UNL1        0.0002
      2 C         143.6016  143.3500  161.1915 C.ar    1  UNL1        0.0000
      3 C         144.2866  142.4665  162.1915 C.ar    1  UNL1        0.0000
      4 C         143.4800  141.7379  163.2253 C.ar    1  UNL1        0.0000
      5 C         141.9885  141.8928  163.2589 C.ar    1  UNL1        0.0014
      6 C         141.3034  142.7763  162.2589 C.ar    1  UNL1        0.0000
      7 C         141.1819  141.1642  164.2927 C.ar    1  UNL1        0.0174
      8 C         141.1345  141.6733  165.7028 C.ar    1  UNL1       -0.0012
      9 C         140.3279  140.9447  166.7365 C.ar    1  UNL1       -0.0025
     10 C         139.5687  139.7070  166.3601 C.ar    1  UNL1       -0.0012
     11 C         139.6161  139.1979  164.9499 C.ar    1  UNL1        0.0174
     12 C         138.8569  137.9602  164.5735 C.ar    1  UNL1        0.0031
     13 C         138.9043  137.4511  163.1634 C.ar    1  UNL1        0.0207
     14 C         139.7108  138.1797  162.1296 C.ar    1  UNL1        0.0988
     15 N         140.4700  139.4174  162.5060 N.ar    1  UNL1       -0.2438
     16 C         140.4226  139.9265  163.9162 C.ar    1  UNL1        0.0812
     17 C         140.2806  141.4538  168.1467 C.3     1  UNL1        0.1294
     18 C         140.6080  142.8341  167.6593 C.3     1  UNL1        0.0281
     19 C         139.9532  140.0735  168.6341 C.3     1  UNL1        0.0281
     20 S         140.2332  141.9630  169.5569 S.O2    1  UNL1       -0.0079
     21 C         140.1859  142.4721  170.9670 C.3     1  UNL1        0.1763
     22 O         141.2977  142.9679  169.2298 O.2     1  UNL1       -0.1727
     23 O         139.1687  140.9581  169.8840 O.2     1  UNL1       -0.1727
     24 C         141.0554  143.8478  158.8756 C.2     1  UNL1        0.0561
     25 C         141.4250  144.3884  160.2251 C.2     1  UNL1        0.0047
     26 C         137.9818  145.5093  154.9168 C.3     1  UNL1        0.0773
     27 C         138.9576  145.4950  156.0558 C.ar    1  UNL1        0.1812
     28 N         139.6749  146.6868  156.6173 N.ar    1  UNL1       -0.0602
     29 O         140.5481  146.2147  157.7420 O.2     1  UNL1       -0.3328
     30 C         140.3704  144.7313  157.8756 C.ar    1  UNL1        0.2597
     31 N         139.3874  144.2865  156.8334 N.ar    1  UNL1       -0.1911
     32 C         141.3708  142.4236  158.5262 C.ar    1  UNL1        0.0047
     33 C         140.4150  141.3300  158.9010 C.ar    1  UNL1        0.0015
     34 C         140.7305  139.9058  158.5515 C.ar    1  UNL1        0.0183
     35 C         142.0018  139.5752  157.8273 C.ar    1  UNL1        0.1057
     36 C         142.9576  140.6687  157.4525 C.ar    1  UNL1        0.0183
     37 C         142.6422  142.0929  157.8019 C.ar    1  UNL1        0.0015
     38 S         142.3173  138.1509  157.4778 S.O2    1  UNL1        0.0104
     39 C         142.6327  136.7267  157.1283 C.3     1  UNL1        0.1816
     40 O         143.7409  138.5340  157.2015 O.2     1  UNL1       -0.1686
     41 O         140.8936  137.7678  157.7540 O.2     1  UNL1       -0.1686
@<TRIPOS>BOND
     1    26    27    1
     2    27    28   ar
     3    28    29   ar
     4    29    30   ar
     5    30    24    1
     6    24    25    2
     7    25     1    1
     8     1     2   ar
     9     2     3   ar
    10     3     4   ar
    11     4     5   ar
    12     5     7    1
    13     7     8   ar
    14     8     9   ar
    15     9    17    1
    16    17    18    1
    17    17    19    1
    18    17    20    1
    19    20    21    1
    20    20    22    2
    21    20    23    2
    22     9    10   ar
    23    10    11   ar
    24    11    12   ar
    25    12    13   ar
    26    13    14   ar
    27    14    15   ar
    28    15    16   ar
    29     5     6   ar
    30    24    32    1
    31    32    33   ar
    32    33    34   ar
    33    34    35   ar
    34    35    38    1
    35    38    39    1
    36    38    40    2
    37    38    41    2
    38    35    36   ar
    39    36    37   ar
    40    30    31   ar
    41    31    27   ar
    42     6     1   ar
    43    37    32   ar
    44    16     7   ar
    45    16    11   ar
@<TRIPOS>MOLECULE
*****
 41 45 0 0 0
SMALL
GASTEIGER

@<TRIPOS>ATOM
      1 C         143.8892  141.3066  161.2135 C.ar    1  UNL1        0.0002
      2 C         144.8724  142.4301  161.0672 C.ar    1  UNL1        0.0000
      3 C         144.8148  143.6034  161.9999 C.ar    1  UNL1        0.0000
      4 C         143.7740  143.6533  163.0790 C.ar    1  UNL1        0.0000
      5 C         142.7909  142.5299  163.2253 C.ar    1  UNL1        0.0014
      6 C         142.8485  141.3565  162.2926 C.ar    1  UNL1        0.0000
      7 C         141.7502  142.5798  164.3044 C.ar    1  UNL1        0.0174
      8 C         142.1020  142.1743  165.7050 C.ar    1  UNL1       -0.0012
      9 C         141.0612  142.2242  166.7841 C.ar    1  UNL1       -0.0025
     10 C         139.6687  142.6796  166.4625 C.ar    1  UNL1       -0.0012
     11 C         139.3168  143.0851  165.0618 C.ar    1  UNL1        0.0174
     12 C         137.9243  143.5405  164.7403 C.ar    1  UNL1        0.0031
     13 C         137.5725  143.9459  163.3397 C.ar    1  UNL1        0.0207
     14 C         138.6133  143.8961  162.2606 C.ar    1  UNL1        0.0988
     15 N         140.0058  143.4407  162.5821 N.ar    1  UNL1       -0.2438
     16 C         140.3576  143.0352  163.9828 C.ar    1  UNL1        0.0812
     17 C         141.4131  141.8187  168.1847 C.3     1  UNL1        0.1294
     18 C         142.3252  140.7558  167.6478 C.3     1  UNL1        0.0281
     19 C         140.5010  142.8815  168.7216 C.3     1  UNL1        0.0281
     20 S         141.7649  141.4131  169.5853 S.O2    1  UNL1       -0.0079
     21 C         142.1168  141.0076  170.9859 C.3     1  UNL1        0.1763
     22 O         143.0050  140.7384  169.0784 O.2     1  UNL1       -0.1727
     23 O         140.5249  142.0879  170.0922 O.2     1  UNL1       -0.1727
     24 C         143.3183  140.2239  158.9218 C.2     1  UNL1        0.0561
     25 C         143.9469  140.1334  160.2808 C.2     1  UNL1        0.0047
     26 C         142.6563  135.4055  156.8663 C.3     1  UNL1        0.0773
     27 C         143.0716  136.8358  157.0443 C.ar    1  UNL1        0.1812
     28 N         143.8575  137.6543  156.0632 N.ar    1  UNL1       -0.0602
     29 O         144.0456  139.0232  156.6472 O.2     1  UNL1       -0.3328
     30 C         143.3759  139.0507  157.9891 C.ar    1  UNL1        0.2597
     31 N         142.7740  137.6987  158.2345 N.ar    1  UNL1       -0.1911
     32 C         142.6320  141.4878  158.4957 C.ar    1  UNL1        0.0047
     33 C         141.2235  141.7607  158.9333 C.ar    1  UNL1        0.0015
     34 C         140.5372  143.0246  158.5071 C.ar    1  UNL1        0.0183
     35 C         141.2595  144.0156  157.6433 C.ar    1  UNL1        0.1057
     36 C         142.6681  143.7427  157.2056 C.ar    1  UNL1        0.0183
     37 C         143.3543  142.4789  157.6318 C.ar    1  UNL1        0.0015
     38 S         140.5733  145.2796  157.2170 S.O2    1  UNL1        0.0104
     39 C         139.8871  146.5435  156.7909 C.3     1  UNL1        0.1816
     40 O         139.4814  144.4720  156.5802 O.2     1  UNL1       -0.1686
     41 O         141.6652  146.0871  157.8538 O.2     1  UNL1       -0.1686
@<TRIPOS>BOND
     1    26    27    1
     2    27    28   ar
     3    28    29   ar
     4    29    30   ar
     5    30    24    1
     6    24    25    2
     7    25     1    1
     8     1     2   ar
     9     2     3   ar
    10     3     4   ar
    11     4     5   ar
    12     5     7    1
    13     7     8   ar
    14     8     9   ar
    15     9    17    1
    16    17    18    1
    17    17    19    1
    18    17    20    1
    19    20    21    1
    20    20    22    2
    21    20    23    2
    22     9    10   ar
    23    10    11   ar
    24    11    12   ar
    25    12    13   ar
    26    13    14   ar
    27    14    15   ar
    28    15    16   ar
    29     5     6   ar
    30    24    32    1
    31    32    33   ar
    32    33    34   ar
    33    34    35   ar
    34    35    38    1
    35    38    39    1
    36    38    40    2
    37    38    41    2
    38    35    36   ar
    39    36    37   ar
    40    30    31   ar
    41    31    27   ar
    42     6     1   ar
    43    37    32   ar
    44    16     7   ar
    45    16    11   ar
