@<TRIPOS>MOLECULE
*****
 44 49 0 0 0
SMALL
GASTEIGER

@<TRIPOS>ATOM
      1 C         140.1797  143.6922  159.5980 C.3     1  UNL1        0.1299
      2 C         140.7407  145.0543  159.3152 C.3     1  UNL1        0.0278
      3 C         140.6043  145.8822  158.0718 C.3     1  UNL1        0.0085
      4 C         139.8731  145.5525  156.8042 C.3     1  UNL1        0.0473
      5 C         139.0978  144.3135  156.4669 C.3     1  UNL1        0.1113
      6 N         138.8622  143.0981  157.3140 N.ar    1  UNL1       -0.3163
      7 C         138.0616  141.9148  156.8568 C.ar    1  UNL1        0.0658
      8 C         138.0484  140.9071  157.9678 C.ar    1  UNL1        0.1132
      9 N         138.8407  141.4675  159.1115 N.ar    1  UNL1       -0.2280
     10 C         139.3437  142.8217  158.7074 C.ar    1  UNL1        0.1381
     11 O         140.0333  142.7567  170.0553 O.2     1  UNL1       -0.2260
     12 C         140.6103  142.1246  168.8234 C.2     1  UNL1        0.4065
     13 N         141.5041  140.9260  168.9438 N.am    1  UNL1       -0.2352
     14 C         142.0811  140.2939  167.7119 C.ar    1  UNL1        0.1358
     15 N         142.9750  139.0954  167.8324 N.ar    1  UNL1       -0.2291
     16 C         143.5519  138.4632  166.6005 C.ar    1  UNL1        0.1003
     17 C         143.2350  139.0296  165.2482 C.ar    1  UNL1        0.0206
     18 C         142.3412  140.2281  165.1278 C.ar    1  UNL1        0.0034
     19 C         141.7642  140.8603  166.3596 C.ar    1  UNL1        0.0456
     20 C         140.8703  142.0588  166.2392 C.3     1  UNL1        0.1620
     21 C         141.4473  141.4266  165.0073 C.3     1  UNL1        0.0662
     22 C         141.1304  141.9930  163.6550 C.3     1  UNL1        0.0989
     23 N         140.2365  143.1916  163.5346 N.am    1  UNL1       -0.2640
     24 C         139.9196  143.7580  162.1822 C.2     1  UNL1        0.3042
     25 O         139.0257  144.9565  162.0618 O.2     1  UNL1       -0.2526
     26 N         140.4966  143.1258  160.9503 N.am    1  UNL1       -0.2837
     27 C         139.6596  143.8237  164.7664 C.3     1  UNL1        0.0989
     28 C         139.9765  143.2573  166.1187 C.3     1  UNL1        0.0662
     29 O         140.2934  142.6909  167.4711 O.3     1  UNL1       -0.4373
     30 H         141.7121  140.5543  169.8314 H       1  UNL1        0.1596
     31 H         141.0833  142.3392  161.0294 H       1  UNL1        0.1513
     32 C         139.9240  146.6004  155.7322 C.ar    1  UNL1        0.0091
     33 C         140.6740  146.3363  154.4602 C.ar    1  UNL1       -0.0019
     34 C         140.7249  147.3842  153.3882 C.ar    1  UNL1        0.0021
     35 C         140.0259  148.6962  153.5880 C.ar    1  UNL1        0.0319
     36 C         139.2759  148.9603  154.8599 C.ar    1  UNL1        0.1671
     37 F         138.5769  150.2724  155.0597 F       1  UNL1       -0.2018
     38 C         139.2249  147.9125  155.9320 C.ar    1  UNL1        0.1634
     39 F         138.4750  148.1765  157.2038 F       1  UNL1       -0.2021
     40 C         137.3920  141.7656  155.5230 C.3     1  UNL1        0.1485
     41 C         135.8948  141.7614  155.4317 C.3     1  UNL1        0.4032
     42 F         134.3975  141.7573  155.3404 F       1  UNL1       -0.1696
     43 F         135.8951  143.2595  155.3574 F       1  UNL1       -0.1696
     44 F         135.8944  140.2633  155.5060 F       1  UNL1       -0.1696
@<TRIPOS>BOND
     1    11    12    2
     2    12    13   am
     3    13    14    1
     4    14    15   ar
     5    15    16   ar
     6    16    17   ar
     7    17    18   ar
     8    18    19   ar
     9    19    20    1
    10    20    21    1
    11    21    22    1
    12    22    23    1
    13    23    24   am
    14    24    25    2
    15    24    26   am
    16     1    26    1
    17     1     2    1
    18     2     3    1
    19     3     4    1
    20     4    32    1
    21    32    33   ar
    22    33    34   ar
    23    34    35   ar
    24    35    36   ar
    25    36    37    1
    26    36    38   ar
    27    38    39    1
    28     4     5    1
    29     5     6    1
    30     6     7   ar
    31     7    40    1
    32    40    41    1
    33    41    42    1
    34    41    43    1
    35    41    44    1
    36     7     8   ar
    37     8     9   ar
    38     9    10   ar
    39    23    27    1
    40    27    28    1
    41    20    29    1
    42    29    12    1
    43    19    14   ar
    44    28    20    1
    45    10     1    1
    46    38    32   ar
    47    10     6   ar
    48    13    30    1
    49    26    31    1
@<TRIPOS>MOLECULE
*****
 44 49 0 0 0
SMALL
GASTEIGER

@<TRIPOS>ATOM
      1 C         140.8601  139.6120  161.0872 C.3     1  UNL1        0.1299
      2 C         141.6904  138.4392  160.6569 C.3     1  UNL1        0.0278
      3 C         141.9253  137.9182  159.2701 C.3     1  UNL1        0.0085
      4 C         141.3879  138.4414  157.9709 C.3     1  UNL1        0.0473
      5 C         140.4829  139.6147  157.7379 C.3     1  UNL1        0.1113
      6 N         139.8918  140.5546  158.7464 N.ar    1  UNL1       -0.3163
      7 C         138.9935  141.6994  158.3820 C.ar    1  UNL1        0.0658
      8 C         138.6063  142.4056  159.6473 C.ar    1  UNL1        0.1132
      9 N         139.2652  141.6974  160.7938 N.ar    1  UNL1       -0.2280
     10 C         140.0597  140.5535  160.2370 C.ar    1  UNL1        0.1381
     11 O         137.3203  139.3185  170.9682 O.2     1  UNL1       -0.2260
     12 C         138.4429  139.8607  170.1341 C.2     1  UNL1        0.4065
     13 N         139.5312  140.6694  170.7757 N.am    1  UNL1       -0.2352
     14 C         140.6539  141.2116  169.9415 C.ar    1  UNL1        0.1358
     15 N         141.7421  142.0203  170.5831 N.ar    1  UNL1       -0.2291
     16 C         142.8647  142.5624  169.7490 C.ar    1  UNL1        0.1003
     17 C         142.8991  142.2959  168.2733 C.ar    1  UNL1        0.0206
     18 C         141.8108  141.4871  167.6317 C.ar    1  UNL1        0.0034
     19 C         140.6882  140.9450  168.4658 C.ar    1  UNL1        0.0456
     20 C         139.5999  140.1362  167.8242 C.3     1  UNL1        0.1620
     21 C         140.7226  140.6784  166.9901 C.3     1  UNL1        0.0662
     22 C         140.7570  140.4118  165.5144 C.3     1  UNL1        0.0989
     23 N         139.6687  139.6031  164.8728 N.am    1  UNL1       -0.2640
     24 C         139.7031  139.3365  163.3971 C.2     1  UNL1        0.3042
     25 O         138.6148  138.5277  162.7555 O.2     1  UNL1       -0.2526
     26 N         140.8257  139.8786  162.5629 N.am    1  UNL1       -0.2837
     27 C         138.5461  139.0609  165.7069 C.3     1  UNL1        0.0989
     28 C         138.5117  139.3275  167.1826 C.3     1  UNL1        0.0662
     29 O         138.4773  139.5941  168.6583 O.3     1  UNL1       -0.4373
     30 H         139.5086  140.8444  171.7442 H       1  UNL1        0.1596
     31 H         141.5400  140.4094  162.9840 H       1  UNL1        0.1513
     32 C         141.8116  137.6920  156.7425 C.ar    1  UNL1        0.0091
     33 C         143.2627  137.6246  156.3684 C.ar    1  UNL1       -0.0019
     34 C         143.6864  136.8753  155.1400 C.ar    1  UNL1        0.0021
     35 C         142.6592  136.1934  154.2858 C.ar    1  UNL1        0.0319
     36 C         141.2082  136.2608  154.6599 C.ar    1  UNL1        0.1671
     37 F         140.1809  135.5789  153.8056 F       1  UNL1       -0.2018
     38 C         140.7844  137.0101  155.8883 C.ar    1  UNL1        0.1634
     39 F         139.3334  137.0775  156.2624 F       1  UNL1       -0.2021
     40 C         138.5589  142.0723  156.9957 C.3     1  UNL1        0.1485
     41 C         137.1454  141.8227  156.5602 C.3     1  UNL1        0.4032
     42 F         135.7318  141.5730  156.1247 F       1  UNL1       -0.1696
     43 F         137.3955  140.3441  156.5955 F       1  UNL1       -0.1696
     44 F         136.8952  143.3012  156.5249 F       1  UNL1       -0.1696
@<TRIPOS>BOND
     1    11    12    2
     2    12    13   am
     3    13    14    1
     4    14    15   ar
     5    15    16   ar
     6    16    17   ar
     7    17    18   ar
     8    18    19   ar
     9    19    20    1
    10    20    21    1
    11    21    22    1
    12    22    23    1
    13    23    24   am
    14    24    25    2
    15    24    26   am
    16     1    26    1
    17     1     2    1
    18     2     3    1
    19     3     4    1
    20     4    32    1
    21    32    33   ar
    22    33    34   ar
    23    34    35   ar
    24    35    36   ar
    25    36    37    1
    26    36    38   ar
    27    38    39    1
    28     4     5    1
    29     5     6    1
    30     6     7   ar
    31     7    40    1
    32    40    41    1
    33    41    42    1
    34    41    43    1
    35    41    44    1
    36     7     8   ar
    37     8     9   ar
    38     9    10   ar
    39    23    27    1
    40    27    28    1
    41    20    29    1
    42    29    12    1
    43    19    14   ar
    44    28    20    1
    45    10     1    1
    46    38    32   ar
    47    10     6   ar
    48    13    30    1
    49    26    31    1
@<TRIPOS>MOLECULE
*****
 44 49 0 0 0
SMALL
GASTEIGER

@<TRIPOS>ATOM
      1 C         142.7805  142.2786  161.6625 C.3     1  UNL1        0.1299
      2 C         143.7160  141.2480  161.1033 C.3     1  UNL1        0.0278
      3 C         144.2443  141.1252  159.7048 C.3     1  UNL1        0.0085
      4 C         143.9675  142.0026  158.5200 C.3     1  UNL1        0.0473
      5 C         143.0941  143.2195  158.4412 C.3     1  UNL1        0.1113
      6 N         142.2817  143.8596  159.5277 N.ar    1  UNL1       -0.3163
      7 C         141.4425  145.0853  159.3190 C.ar    1  UNL1        0.0658
      8 C         140.7843  145.4240  160.6236 C.ar    1  UNL1        0.1132
      9 N         141.2167  144.4077  161.6386 N.ar    1  UNL1       -0.2280
     10 C         142.1422  143.4408  160.9613 C.ar    1  UNL1        0.1381
     11 O         137.4134  139.1943  170.1437 O.2     1  UNL1       -0.2260
     12 C         138.6316  139.9695  169.7374 C.2     1  UNL1        0.4065
     13 N         139.5073  140.5929  170.7836 N.am    1  UNL1       -0.2352
     14 C         140.7255  141.3681  170.3773 C.ar    1  UNL1        0.1358
     15 N         141.6012  141.9915  171.4235 N.ar    1  UNL1       -0.2291
     16 C         142.8194  142.7667  171.0172 C.ar    1  UNL1        0.1003
     17 C         143.1619  142.9184  169.5647 C.ar    1  UNL1        0.0206
     18 C         142.2862  142.2950  168.5185 C.ar    1  UNL1        0.0034
     19 C         141.0680  141.5199  168.9248 C.ar    1  UNL1        0.0456
     20 C         140.1923  140.8964  167.8786 C.3     1  UNL1        0.1620
     21 C         141.4105  141.6716  167.4724 C.3     1  UNL1        0.0662
     22 C         141.7530  141.8234  166.0199 C.3     1  UNL1        0.0989
     23 N         140.8773  141.1999  164.9737 N.am    1  UNL1       -0.2640
     24 C         141.2197  141.3517  163.5212 C.2     1  UNL1        0.3042
     25 O         140.3441  140.7282  162.4751 O.2     1  UNL1       -0.2526
     26 N         142.4380  142.1269  163.1150 N.am    1  UNL1       -0.2837
     27 C         139.6591  140.4247  165.3800 C.3     1  UNL1        0.0989
     28 C         139.3166  140.2730  166.8325 C.3     1  UNL1        0.0662
     29 O         138.9741  140.1212  168.2850 O.3     1  UNL1       -0.4373
     30 H         139.2825  140.4933  171.7369 H       1  UNL1        0.1596
     31 H         143.0127  142.5360  163.8016 H       1  UNL1        0.1513
     32 C         144.6551  141.6113  157.2456 C.ar    1  UNL1        0.0091
     33 C         143.9559  140.7248  156.2579 C.ar    1  UNL1       -0.0019
     34 C         144.6434  140.3334  154.9836 C.ar    1  UNL1        0.0021
     35 C         146.0300  140.8284  154.6968 C.ar    1  UNL1        0.0319
     36 C         146.7292  141.7149  155.6844 C.ar    1  UNL1        0.1671
     37 F         148.1158  142.2099  155.3977 F       1  UNL1       -0.2018
     38 C         146.0417  142.1063  156.9589 C.ar    1  UNL1        0.1634
     39 F         146.7407  142.9927  157.9465 F       1  UNL1       -0.2021
     40 C         141.2885  145.8396  158.0317 C.3     1  UNL1        0.1485
     41 C         140.0748  145.6247  157.1770 C.3     1  UNL1        0.4032
     42 F         138.8610  145.4098  156.3222 F       1  UNL1       -0.1696
     43 F         139.5356  146.9565  157.6077 F       1  UNL1       -0.1696
     44 F         140.6140  144.2929  156.7463 F       1  UNL1       -0.1696
@<TRIPOS>BOND
     1    11    12    2
     2    12    13   am
     3    13    14    1
     4    14    15   ar
     5    15    16   ar
     6    16    17   ar
     7    17    18   ar
     8    18    19   ar
     9    19    20    1
    10    20    21    1
    11    21    22    1
    12    22    23    1
    13    23    24   am
    14    24    25    2
    15    24    26   am
    16     1    26    1
    17     1     2    1
    18     2     3    1
    19     3     4    1
    20     4    32    1
    21    32    33   ar
    22    33    34   ar
    23    34    35   ar
    24    35    36   ar
    25    36    37    1
    26    36    38   ar
    27    38    39    1
    28     4     5    1
    29     5     6    1
    30     6     7   ar
    31     7    40    1
    32    40    41    1
    33    41    42    1
    34    41    43    1
    35    41    44    1
    36     7     8   ar
    37     8     9   ar
    38     9    10   ar
    39    23    27    1
    40    27    28    1
    41    20    29    1
    42    29    12    1
    43    19    14   ar
    44    28    20    1
    45    10     1    1
    46    38    32   ar
    47    10     6   ar
    48    13    30    1
    49    26    31    1
@<TRIPOS>MOLECULE
*****
 44 49 0 0 0
SMALL
GASTEIGER

@<TRIPOS>ATOM
      1 C         139.8339  141.4365  161.3880 C.3     1  UNL1        0.1299
      2 C         139.0057  142.5915  160.9083 C.3     1  UNL1        0.0278
      3 C         138.5318  142.8882  159.5164 C.3     1  UNL1        0.0085
      4 C         138.7692  142.1032  158.2603 C.3     1  UNL1        0.0473
      5 C         139.5390  140.8277  158.0861 C.3     1  UNL1        0.1113
      6 N         140.2616  140.0221  159.1248 N.ar    1  UNL1       -0.3163
      7 C         141.0004  138.7528  158.8196 C.ar    1  UNL1        0.0658
      8 C         141.5883  138.2393  160.1006 C.ar    1  UNL1        0.1132
      9 N         141.2127  139.1912  161.1973 N.ar    1  UNL1       -0.2280
     10 C         140.3928  140.2930  160.5943 C.ar    1  UNL1        0.1381
     11 O         145.2356  143.1509  170.2273 O.2     1  UNL1       -0.2260
     12 C         143.9521  142.5573  169.7267 C.2     1  UNL1        0.4065
     13 N         142.9790  141.9505  170.6936 N.am    1  UNL1       -0.2352
     14 C         141.6956  141.3570  170.1930 C.ar    1  UNL1        0.1358
     15 N         140.7225  140.7502  171.1599 N.ar    1  UNL1       -0.2291
     16 C         139.4392  140.1567  170.6593 C.ar    1  UNL1        0.1003
     17 C         139.1289  140.1699  169.1918 C.ar    1  UNL1        0.0206
     18 C         140.1019  140.7767  168.2249 C.ar    1  UNL1        0.0034
     19 C         141.3853  141.3702  168.7255 C.ar    1  UNL1        0.0456
     20 C         142.3585  141.9770  167.7586 C.3     1  UNL1        0.1620
     21 C         141.0750  141.3835  167.2580 C.3     1  UNL1        0.0662
     22 C         140.7647  141.3967  165.7905 C.3     1  UNL1        0.0989
     23 N         141.7379  142.0035  164.8236 N.am    1  UNL1       -0.2640
     24 C         141.4276  142.0168  163.3561 C.2     1  UNL1        0.3042
     25 O         142.4007  142.6235  162.3892 O.2     1  UNL1       -0.2526
     26 N         140.1441  141.4232  162.8555 N.am    1  UNL1       -0.2837
     27 C         143.0213  142.5970  165.3242 C.3     1  UNL1        0.0989
     28 C         143.3315  142.5838  166.7917 C.3     1  UNL1        0.0662
     29 O         143.6418  142.5706  168.2592 O.3     1  UNL1       -0.4373
     30 H         143.1827  141.9419  171.6567 H       1  UNL1        0.1596
     31 H         139.5055  141.0250  163.4901 H       1  UNL1        0.1513
     32 C         138.1556  142.6687  157.0139 C.ar    1  UNL1        0.0091
     33 C         138.7894  143.8457  156.3334 C.ar    1  UNL1       -0.0019
     34 C         138.1759  144.4112  155.0869 C.ar    1  UNL1        0.0021
     35 C         136.9286  143.7997  154.5209 C.ar    1  UNL1        0.0319
     36 C         136.2949  142.6228  155.2013 C.ar    1  UNL1        0.1671
     37 F         135.0476  142.0113  154.6353 F       1  UNL1       -0.2018
     38 C         136.9084  142.0572  156.4478 C.ar    1  UNL1        0.1634
     39 F         136.2747  140.8803  157.1283 F       1  UNL1       -0.2021
     40 C         141.1289  138.1100  157.4706 C.3     1  UNL1        0.1485
     41 C         142.3977  137.4042  157.0938 C.3     1  UNL1        0.4032
     42 F         143.6666  136.6984  156.7170 F       1  UNL1       -0.1696
     43 F         141.6221  136.1459  156.8386 F       1  UNL1       -0.1696
     44 F         143.1733  138.6625  157.3489 F       1  UNL1       -0.1696
@<TRIPOS>BOND
     1    11    12    2
     2    12    13   am
     3    13    14    1
     4    14    15   ar
     5    15    16   ar
     6    16    17   ar
     7    17    18   ar
     8    18    19   ar
     9    19    20    1
    10    20    21    1
    11    21    22    1
    12    22    23    1
    13    23    24   am
    14    24    25    2
    15    24    26   am
    16     1    26    1
    17     1     2    1
    18     2     3    1
    19     3     4    1
    20     4    32    1
    21    32    33   ar
    22    33    34   ar
    23    34    35   ar
    24    35    36   ar
    25    36    37    1
    26    36    38   ar
    27    38    39    1
    28     4     5    1
    29     5     6    1
    30     6     7   ar
    31     7    40    1
    32    40    41    1
    33    41    42    1
    34    41    43    1
    35    41    44    1
    36     7     8   ar
    37     8     9   ar
    38     9    10   ar
    39    23    27    1
    40    27    28    1
    41    20    29    1
    42    29    12    1
    43    19    14   ar
    44    28    20    1
    45    10     1    1
    46    38    32   ar
    47    10     6   ar
    48    13    30    1
    49    26    31    1
@<TRIPOS>MOLECULE
*****
 44 49 0 0 0
SMALL
GASTEIGER

@<TRIPOS>ATOM
      1 C         139.9313  142.2677  162.8614 C.3     1  UNL1        0.1299
      2 C         140.5439  143.3670  163.6778 C.3     1  UNL1        0.0278
      3 C         140.8920  143.3656  165.1368 C.3     1  UNL1        0.0085
      4 C         140.7136  142.2646  166.1399 C.3     1  UNL1        0.0473
      5 C         140.1429  140.8931  165.9316 C.3     1  UNL1        0.1113
      6 N         139.6097  140.2839  164.6688 N.ar    1  UNL1       -0.3163
      7 C         139.0617  138.8897  164.5913 C.ar    1  UNL1        0.0658
      8 C         138.6288  138.6399  163.1770 C.ar    1  UNL1        0.1132
      9 N         138.9093  139.8796  162.3805 N.ar    1  UNL1       -0.2280
     10 C         139.5156  140.8957  163.3025 C.ar    1  UNL1        0.1381
     11 O         141.8919  146.1471  153.3033 O.2     1  UNL1       -0.2260
     12 C         140.8603  145.3780  154.0743 C.2     1  UNL1        0.4065
     13 N         139.6019  144.9235  153.3963 N.am    1  UNL1       -0.2352
     14 C         138.5702  144.1544  154.1673 C.ar    1  UNL1        0.1358
     15 N         137.3118  143.6999  153.4893 N.ar    1  UNL1       -0.2291
     16 C         136.2803  142.9309  154.2603 C.ar    1  UNL1        0.1003
     17 C         136.5071  142.6164  155.7093 C.ar    1  UNL1        0.0206
     18 C         137.7655  143.0710  156.3873 C.ar    1  UNL1        0.0034
     19 C         138.7971  143.8400  155.6163 C.ar    1  UNL1        0.0456
     20 C         140.0556  144.2946  156.2944 C.3     1  UNL1        0.1620
     21 C         139.0239  143.5255  157.0653 C.3     1  UNL1        0.0662
     22 C         139.2508  143.2111  158.5144 C.3     1  UNL1        0.0989
     23 N         140.5092  143.6657  159.1924 N.am    1  UNL1       -0.2640
     24 C         140.7361  143.3512  160.6414 C.2     1  UNL1        0.3042
     25 O         141.9945  143.8058  161.3194 O.2     1  UNL1       -0.2526
     26 N         139.7044  142.5822  161.4124 N.am    1  UNL1       -0.2837
     27 C         141.5408  144.4347  158.4214 C.3     1  UNL1        0.0989
     28 C         141.3139  144.7491  156.9724 C.3     1  UNL1        0.0662
     29 O         141.0871  145.0636  155.5234 O.3     1  UNL1       -0.4373
     30 H         139.4530  145.1299  152.4453 H       1  UNL1        0.1596
     31 H         138.8785  142.2838  160.9674 H       1  UNL1        0.1513
     32 C         141.1656  142.5764  167.5357 C.ar    1  UNL1        0.0091
     33 C         140.2193  143.2229  168.5036 C.ar    1  UNL1       -0.0019
     34 C         140.6712  143.5347  169.8995 C.ar    1  UNL1        0.0021
     35 C         142.0694  143.2001  170.3275 C.ar    1  UNL1        0.0319
     36 C         143.0156  142.5537  169.3597 C.ar    1  UNL1        0.1671
     37 F         144.4138  142.2192  169.7877 F       1  UNL1       -0.2018
     38 C         142.5637  142.2418  167.9638 C.ar    1  UNL1        0.1634
     39 F         143.5099  141.5955  166.9959 F       1  UNL1       -0.2021
     40 C         138.9637  137.9164  165.7283 C.3     1  UNL1        0.1485
     41 C         137.7241  137.8705  166.5716 C.3     1  UNL1        0.4032
     42 F         136.4845  137.8247  167.4150 F       1  UNL1       -0.1696
     43 F         137.7893  136.3721  166.5861 F       1  UNL1       -0.1696
     44 F         137.6589  139.3690  166.5572 F       1  UNL1       -0.1696
@<TRIPOS>BOND
     1    11    12    2
     2    12    13   am
     3    13    14    1
     4    14    15   ar
     5    15    16   ar
     6    16    17   ar
     7    17    18   ar
     8    18    19   ar
     9    19    20    1
    10    20    21    1
    11    21    22    1
    12    22    23    1
    13    23    24   am
    14    24    25    2
    15    24    26   am
    16     1    26    1
    17     1     2    1
    18     2     3    1
    19     3     4    1
    20     4    32    1
    21    32    33   ar
    22    33    34   ar
    23    34    35   ar
    24    35    36   ar
    25    36    37    1
    26    36    38   ar
    27    38    39    1
    28     4     5    1
    29     5     6    1
    30     6     7   ar
    31     7    40    1
    32    40    41    1
    33    41    42    1
    34    41    43    1
    35    41    44    1
    36     7     8   ar
    37     8     9   ar
    38     9    10   ar
    39    23    27    1
    40    27    28    1
    41    20    29    1
    42    29    12    1
    43    19    14   ar
    44    28    20    1
    45    10     1    1
    46    38    32   ar
    47    10     6   ar
    48    13    30    1
    49    26    31    1
@<TRIPOS>MOLECULE
*****
 44 49 0 0 0
SMALL
GASTEIGER

@<TRIPOS>ATOM
      1 C         140.0897  140.1966  160.7735 C.3     1  UNL1        0.1299
      2 C         138.9703  140.9705  160.1426 C.3     1  UNL1        0.0278
      3 C         138.5776  141.0363  158.6964 C.3     1  UNL1        0.0085
      4 C         139.2073  140.3442  157.5239 C.3     1  UNL1        0.0473
      5 C         140.3852  139.4156  157.5081 C.3     1  UNL1        0.1113
      6 N         141.2243  138.9497  158.6608 N.ar    1  UNL1       -0.3163
      7 C         142.3855  138.0118  158.5117 C.ar    1  UNL1        0.0658
      8 C         142.9716  137.7798  159.8728 C.ar    1  UNL1        0.1132
      9 N         142.1727  138.5742  160.8631 N.ar    1  UNL1       -0.2280
     10 C         141.0928  139.2972  160.1141 C.ar    1  UNL1        0.1381
     11 O         137.6143  139.1988  170.9287 O.2     1  UNL1       -0.2260
     12 C         138.6626  139.7723  170.0219 C.2     1  UNL1        0.4065
     13 N         139.8449  140.4902  170.6022 N.am    1  UNL1       -0.2352
     14 C         140.8933  141.0637  169.6955 C.ar    1  UNL1        0.1358
     15 N         142.0755  141.7817  170.2758 N.ar    1  UNL1       -0.2291
     16 C         143.1238  142.3552  169.3691 C.ar    1  UNL1        0.1003
     17 C         142.9899  142.2106  167.8821 C.ar    1  UNL1        0.0206
     18 C         141.8076  141.4927  167.3018 C.ar    1  UNL1        0.0034
     19 C         140.7593  140.9192  168.2085 C.ar    1  UNL1        0.0456
     20 C         139.5770  140.2012  167.6282 C.3     1  UNL1        0.1620
     21 C         140.6254  140.7747  166.7215 C.3     1  UNL1        0.0662
     22 C         140.4915  140.6301  165.2345 C.3     1  UNL1        0.0989
     23 N         139.3092  139.9121  164.6542 N.am    1  UNL1       -0.2640
     24 C         139.1752  139.7676  163.1672 C.2     1  UNL1        0.3042
     25 O         137.9930  139.0496  162.5869 O.2     1  UNL1       -0.2526
     26 N         140.2236  140.3411  162.2605 N.am    1  UNL1       -0.2837
     27 C         138.2609  139.3387  165.5609 C.3     1  UNL1        0.0989
     28 C         138.3948  139.4832  167.0479 C.3     1  UNL1        0.0662
     29 O         138.5287  139.6277  168.5349 O.3     1  UNL1       -0.4373
     30 H         139.9328  140.5851  171.5782 H       1  UNL1        0.1596
     31 H         140.9996  140.8123  162.6414 H       1  UNL1        0.1513
     32 C         138.5756  140.6170  156.1911 C.ar    1  UNL1        0.0091
     33 C         138.0906  139.4780  155.3439 C.ar    1  UNL1       -0.0019
     34 C         137.4588  139.7507  154.0111 C.ar    1  UNL1        0.0021
     35 C         137.3119  141.1622  153.5254 C.ar    1  UNL1        0.0319
     36 C         137.7968  142.3012  154.3725 C.ar    1  UNL1        0.1671
     37 F         137.6500  143.7127  153.8868 F       1  UNL1       -0.2018
     38 C         138.4287  142.0286  155.7054 C.ar    1  UNL1        0.1634
     39 F         138.9136  143.1674  156.5525 F       1  UNL1       -0.2021
     40 C         142.8746  137.4115  157.2272 C.3     1  UNL1        0.1485
     41 C         142.2844  136.1264  156.7272 C.3     1  UNL1        0.4032
     42 F         141.6941  134.8412  156.2273 F       1  UNL1       -0.1696
     43 F         141.3778  136.8977  155.8146 F       1  UNL1       -0.1696
     44 F         143.1910  135.3550  157.6399 F       1  UNL1       -0.1696
@<TRIPOS>BOND
     1    11    12    2
     2    12    13   am
     3    13    14    1
     4    14    15   ar
     5    15    16   ar
     6    16    17   ar
     7    17    18   ar
     8    18    19   ar
     9    19    20    1
    10    20    21    1
    11    21    22    1
    12    22    23    1
    13    23    24   am
    14    24    25    2
    15    24    26   am
    16     1    26    1
    17     1     2    1
    18     2     3    1
    19     3     4    1
    20     4    32    1
    21    32    33   ar
    22    33    34   ar
    23    34    35   ar
    24    35    36   ar
    25    36    37    1
    26    36    38   ar
    27    38    39    1
    28     4     5    1
    29     5     6    1
    30     6     7   ar
    31     7    40    1
    32    40    41    1
    33    41    42    1
    34    41    43    1
    35    41    44    1
    36     7     8   ar
    37     8     9   ar
    38     9    10   ar
    39    23    27    1
    40    27    28    1
    41    20    29    1
    42    29    12    1
    43    19    14   ar
    44    28    20    1
    45    10     1    1
    46    38    32   ar
    47    10     6   ar
    48    13    30    1
    49    26    31    1
@<TRIPOS>MOLECULE
*****
 44 49 0 0 0
SMALL
GASTEIGER

@<TRIPOS>ATOM
      1 C         141.3374  142.4481  162.7153 C.3     1  UNL1        0.1299
      2 C         142.2279  143.1094  163.7252 C.3     1  UNL1        0.0278
      3 C         142.5090  142.6936  165.1387 C.3     1  UNL1        0.0085
      4 C         141.9691  141.5137  165.8915 C.3     1  UNL1        0.0473
      5 C         141.0148  140.4583  165.4166 C.3     1  UNL1        0.1113
      6 N         140.3647  140.3222  164.0716 N.ar    1  UNL1       -0.3163
      7 C         139.4205  139.2112  163.7189 C.ar    1  UNL1        0.0658
      8 C         138.9806  139.4102  162.2987 C.ar    1  UNL1        0.1132
      9 N         139.6529  140.6441  161.7738 N.ar    1  UNL1       -0.2280
     10 C         140.5083  141.2078  162.8694 C.ar    1  UNL1        0.1381
     11 O         143.6403  144.3848  152.6556 O.2     1  UNL1       -0.2260
     12 C         142.7551  144.8517  153.7730 C.2     1  UNL1        0.4065
     13 N         141.7994  145.9859  153.5490 N.am    1  UNL1       -0.2352
     14 C         140.9143  146.4527  154.6664 C.ar    1  UNL1        0.1358
     15 N         139.9586  147.5869  154.4423 N.ar    1  UNL1       -0.2291
     16 C         139.0735  148.0537  155.5597 C.ar    1  UNL1        0.1003
     17 C         139.1440  147.3863  156.9012 C.ar    1  UNL1        0.0206
     18 C         140.0997  146.2521  157.1253 C.ar    1  UNL1        0.0034
     19 C         140.9848  145.7853  156.0079 C.ar    1  UNL1        0.0456
     20 C         141.9405  144.6510  156.2319 C.3     1  UNL1        0.1620
     21 C         141.0553  145.1179  157.3494 C.3     1  UNL1        0.0662
     22 C         141.1259  144.4504  158.6908 C.3     1  UNL1        0.0989
     23 N         142.0816  143.3162  158.9149 N.am    1  UNL1       -0.2640
     24 C         142.1521  142.6487  160.2564 C.2     1  UNL1        0.3042
     25 O         143.1077  141.5145  160.4804 O.2     1  UNL1       -0.2526
     26 N         141.2669  143.1156  161.3738 N.am    1  UNL1       -0.2837
     27 C         142.9667  142.8494  157.7975 C.3     1  UNL1        0.0989
     28 C         142.8962  143.5168  156.4560 C.3     1  UNL1        0.0662
     29 O         142.8256  144.1842  155.1145 O.3     1  UNL1       -0.4373
     30 H         141.7532  146.4239  152.6685 H       1  UNL1        0.1596
     31 H         140.6397  143.8600  161.2267 H       1  UNL1        0.1513
     32 C         142.4468  141.3703  167.3061 C.ar    1  UNL1        0.0091
     33 C         143.2015  142.4897  167.9599 C.ar    1  UNL1       -0.0019
     34 C         143.6792  142.3465  169.3745 C.ar    1  UNL1        0.0021
     35 C         143.4022  141.0838  170.1354 C.ar    1  UNL1        0.0319
     36 C         142.6475  139.9644  169.4817 C.ar    1  UNL1        0.1671
     37 F         142.3705  138.7018  170.2426 F       1  UNL1       -0.2018
     38 C         142.1698  140.1077  168.0670 C.ar    1  UNL1        0.1634
     39 F         141.4151  138.9884  167.4132 F       1  UNL1       -0.2021
     40 C         138.9916  138.0971  164.6269 C.3     1  UNL1        0.1485
     41 C         138.1135  138.3877  165.8077 C.3     1  UNL1        0.4032
     42 F         137.2353  138.6783  166.9886 F       1  UNL1       -0.1696
     43 F         138.2731  136.9714  166.2751 F       1  UNL1       -0.1696
     44 F         137.9538  139.8040  165.3404 F       1  UNL1       -0.1696
@<TRIPOS>BOND
     1    11    12    2
     2    12    13   am
     3    13    14    1
     4    14    15   ar
     5    15    16   ar
     6    16    17   ar
     7    17    18   ar
     8    18    19   ar
     9    19    20    1
    10    20    21    1
    11    21    22    1
    12    22    23    1
    13    23    24   am
    14    24    25    2
    15    24    26   am
    16     1    26    1
    17     1     2    1
    18     2     3    1
    19     3     4    1
    20     4    32    1
    21    32    33   ar
    22    33    34   ar
    23    34    35   ar
    24    35    36   ar
    25    36    37    1
    26    36    38   ar
    27    38    39    1
    28     4     5    1
    29     5     6    1
    30     6     7   ar
    31     7    40    1
    32    40    41    1
    33    41    42    1
    34    41    43    1
    35    41    44    1
    36     7     8   ar
    37     8     9   ar
    38     9    10   ar
    39    23    27    1
    40    27    28    1
    41    20    29    1
    42    29    12    1
    43    19    14   ar
    44    28    20    1
    45    10     1    1
    46    38    32   ar
    47    10     6   ar
    48    13    30    1
    49    26    31    1
@<TRIPOS>MOLECULE
*****
 44 49 0 0 0
SMALL
GASTEIGER

@<TRIPOS>ATOM
      1 C         140.1136  142.0910  163.0859 C.3     1  UNL1        0.1299
      2 C         139.5382  142.9933  164.1370 C.3     1  UNL1        0.0278
      3 C         139.6543  142.8846  165.6285 C.3     1  UNL1        0.0085
      4 C         140.3746  141.8467  166.4374 C.3     1  UNL1        0.0473
      5 C         141.1565  140.6612  165.9544 C.3     1  UNL1        0.1113
      6 N         141.4113  140.2209  164.5433 N.ar    1  UNL1       -0.3163
      7 C         142.2168  139.0059  164.1895 C.ar    1  UNL1        0.0658
      8 C         142.2504  138.8913  162.6943 C.ar    1  UNL1        0.1132
      9 N         141.4658  140.0354  162.1240 N.ar    1  UNL1       -0.2280
     10 C         140.9471  140.8572  163.2667 C.ar    1  UNL1        0.1381
     11 O         140.9009  147.3579  154.0365 O.2     1  UNL1       -0.2260
     12 C         140.1424  146.2390  154.6869 C.2     1  UNL1        0.4065
     13 N         139.0863  145.5023  153.9176 N.am    1  UNL1       -0.2352
     14 C         138.3278  144.3834  154.5679 C.ar    1  UNL1        0.1358
     15 N         137.2717  143.6467  153.7986 N.ar    1  UNL1       -0.2291
     16 C         136.5133  142.5279  154.4489 C.ar    1  UNL1        0.1003
     17 C         136.8109  142.1458  155.8686 C.ar    1  UNL1        0.0206
     18 C         137.8670  142.8825  156.6379 C.ar    1  UNL1        0.0034
     19 C         138.6254  144.0013  155.9876 C.ar    1  UNL1        0.0456
     20 C         139.6816  144.7381  156.7569 C.3     1  UNL1        0.1620
     21 C         138.9230  143.6193  157.4072 C.3     1  UNL1        0.0662
     22 C         139.2207  143.2372  158.8269 C.3     1  UNL1        0.0989
     23 N         140.2768  143.9740  159.5962 N.am    1  UNL1       -0.2640
     24 C         140.5744  143.5919  161.0159 C.2     1  UNL1        0.3042
     25 O         141.6305  144.3286  161.7852 O.2     1  UNL1       -0.2526
     26 N         139.8159  142.4730  161.6662 N.am    1  UNL1       -0.2837
     27 C         141.0353  145.0928  158.9459 C.3     1  UNL1        0.0989
     28 C         140.7376  145.4749  157.5262 C.3     1  UNL1        0.0662
     29 O         140.4400  145.8569  156.1065 O.3     1  UNL1       -0.4373
     30 H         138.8910  145.7531  152.9858 H       1  UNL1        0.1596
     31 H         139.1228  141.9895  161.1613 H       1  UNL1        0.1513
     32 C         140.3034  142.0169  167.9260 C.ar    1  UNL1        0.0091
     33 C         140.5400  143.3655  168.5388 C.ar    1  UNL1       -0.0019
     34 C         140.4689  143.5357  170.0273 C.ar    1  UNL1        0.0021
     35 C         140.1612  142.3575  170.9031 C.ar    1  UNL1        0.0319
     36 C         139.9246  141.0090  170.2904 C.ar    1  UNL1        0.1671
     37 F         139.6169  139.8308  171.1662 F       1  UNL1       -0.2018
     38 C         139.9957  140.8387  168.8018 C.ar    1  UNL1        0.1634
     39 F         139.7591  139.4902  168.1890 F       1  UNL1       -0.2021
     40 C         142.8733  138.0699  165.1605 C.3     1  UNL1        0.1485
     41 C         144.2996  138.2916  165.5683 C.3     1  UNL1        0.4032
     42 F         145.7261  138.5132  165.9762 F       1  UNL1       -0.1696
     43 F         144.5066  139.1678  164.3686 F       1  UNL1       -0.1696
     44 F         144.0927  137.4153  166.7680 F       1  UNL1       -0.1696
@<TRIPOS>BOND
     1    11    12    2
     2    12    13   am
     3    13    14    1
     4    14    15   ar
     5    15    16   ar
     6    16    17   ar
     7    17    18   ar
     8    18    19   ar
     9    19    20    1
    10    20    21    1
    11    21    22    1
    12    22    23    1
    13    23    24   am
    14    24    25    2
    15    24    26   am
    16     1    26    1
    17     1     2    1
    18     2     3    1
    19     3     4    1
    20     4    32    1
    21    32    33   ar
    22    33    34   ar
    23    34    35   ar
    24    35    36   ar
    25    36    37    1
    26    36    38   ar
    27    38    39    1
    28     4     5    1
    29     5     6    1
    30     6     7   ar
    31     7    40    1
    32    40    41    1
    33    41    42    1
    34    41    43    1
    35    41    44    1
    36     7     8   ar
    37     8     9   ar
    38     9    10   ar
    39    23    27    1
    40    27    28    1
    41    20    29    1
    42    29    12    1
    43    19    14   ar
    44    28    20    1
    45    10     1    1
    46    38    32   ar
    47    10     6   ar
    48    13    30    1
    49    26    31    1
@<TRIPOS>MOLECULE
*****
 44 49 0 0 0
SMALL
GASTEIGER

@<TRIPOS>ATOM
      1 C         141.1158  140.1443  161.1425 C.3     1  UNL1        0.1299
      2 C         141.7096  138.8594  160.6459 C.3     1  UNL1        0.0278
      3 C         141.8845  138.3956  159.2302 C.3     1  UNL1        0.0085
      4 C         141.5089  139.1021  157.9613 C.3     1  UNL1        0.0473
      5 C         140.8656  140.4469  157.7949 C.3     1  UNL1        0.1113
      6 N         140.4390  141.4173  158.8563 N.ar    1  UNL1       -0.3163
      7 C         139.8011  142.7415  158.5569 C.ar    1  UNL1        0.0658
      8 C         139.5183  143.4253  159.8617 C.ar    1  UNL1        0.1132
      9 N         139.9813  142.5236  160.9674 N.ar    1  UNL1       -0.2280
     10 C         140.5503  141.2826  160.3461 C.ar    1  UNL1        0.1381
     11 O         137.5370  139.2841  170.9763 O.2     1  UNL1       -0.2260
     12 C         138.6756  139.8522  170.1819 C.2     1  UNL1        0.4065
     13 N         139.7815  140.5889  170.8776 N.am    1  UNL1       -0.2352
     14 C         140.9201  141.1570  170.0832 C.ar    1  UNL1        0.1358
     15 N         142.0260  141.8938  170.7789 N.ar    1  UNL1       -0.2291
     16 C         143.1645  142.4617  169.9845 C.ar    1  UNL1        0.1003
     17 C         143.1971  142.2930  168.4944 C.ar    1  UNL1        0.0206
     18 C         142.0912  141.5562  167.7987 C.ar    1  UNL1        0.0034
     19 C         140.9527  140.9882  168.5931 C.ar    1  UNL1        0.0456
     20 C         139.8467  140.2514  167.8974 C.3     1  UNL1        0.1620
     21 C         140.9853  140.8194  167.1030 C.3     1  UNL1        0.0662
     22 C         141.0179  140.6506  165.6128 C.3     1  UNL1        0.0989
     23 N         139.9119  139.9138  164.9171 N.am    1  UNL1       -0.2640
     24 C         139.9446  139.7450  163.4270 C.2     1  UNL1        0.3042
     25 O         138.8387  139.0082  162.7313 O.2     1  UNL1       -0.2526
     26 N         141.0832  140.3130  162.6326 N.am    1  UNL1       -0.2837
     27 C         138.7734  139.3458  165.7115 C.3     1  UNL1        0.0989
     28 C         138.7408  139.5146  167.2016 C.3     1  UNL1        0.0662
     29 O         138.7082  139.6834  168.6917 O.3     1  UNL1       -0.4373
     30 H         139.7601  140.6997  171.8556 H       1  UNL1        0.1596
     31 H         141.8090  140.7966  163.0892 H       1  UNL1        0.1513
     32 C         141.8174  138.3665  156.6911 C.ar    1  UNL1        0.0091
     33 C         141.1829  137.0339  156.4231 C.ar    1  UNL1       -0.0019
     34 C         141.4914  136.2983  155.1528 C.ar    1  UNL1        0.0021
     35 C         142.4344  136.8951  154.1505 C.ar    1  UNL1        0.0319
     36 C         143.0689  138.2276  154.4185 C.ar    1  UNL1        0.1671
     37 F         144.0118  138.8244  153.4162 F       1  UNL1       -0.2018
     38 C         142.7604  138.9633  155.6888 C.ar    1  UNL1        0.1634
     39 F         143.3948  140.2958  155.9568 F       1  UNL1       -0.2021
     40 C         139.4992  143.2864  157.1924 C.3     1  UNL1        0.1485
     41 C         140.4255  144.2828  156.5609 C.3     1  UNL1        0.4032
     42 F         141.3519  145.2793  155.9292 F       1  UNL1       -0.1696
     43 F         139.6026  145.4040  157.1226 F       1  UNL1       -0.1696
     44 F         141.2485  143.1617  155.9991 F       1  UNL1       -0.1696
@<TRIPOS>BOND
     1    11    12    2
     2    12    13   am
     3    13    14    1
     4    14    15   ar
     5    15    16   ar
     6    16    17   ar
     7    17    18   ar
     8    18    19   ar
     9    19    20    1
    10    20    21    1
    11    21    22    1
    12    22    23    1
    13    23    24   am
    14    24    25    2
    15    24    26   am
    16     1    26    1
    17     1     2    1
    18     2     3    1
    19     3     4    1
    20     4    32    1
    21    32    33   ar
    22    33    34   ar
    23    34    35   ar
    24    35    36   ar
    25    36    37    1
    26    36    38   ar
    27    38    39    1
    28     4     5    1
    29     5     6    1
    30     6     7   ar
    31     7    40    1
    32    40    41    1
    33    41    42    1
    34    41    43    1
    35    41    44    1
    36     7     8   ar
    37     8     9   ar
    38     9    10   ar
    39    23    27    1
    40    27    28    1
    41    20    29    1
    42    29    12    1
    43    19    14   ar
    44    28    20    1
    45    10     1    1
    46    38    32   ar
    47    10     6   ar
    48    13    30    1
    49    26    31    1
