@<TRIPOS>MOLECULE
*****
 23 25 0 0 0
SMALL
GASTEIGER

@<TRIPOS>ATOM
      1 C         140.3456  142.5128  167.6522 C.2     1  UNL1        0.0275
      2 C         140.2400  141.0417  167.9254 C.2     1  UNL1        0.0752
      3 C         140.3289  140.8381  169.4088 C.2     1  UNL1        0.3413
      4 O         140.2679  139.5205  170.1231 O.2     1  UNL1       -0.2449
      5 O         140.4895  142.1834  170.0525 O.3     1  UNL1       -0.4404
      6 C         140.4998  143.2184  168.9669 C.3     1  UNL1        0.2356
      7 C         140.2217  144.4664  163.6003 C.ar    1  UNL1        0.1560
      8 C         139.0860  144.6592  164.5609 C.ar    1  UNL1        0.0493
      9 C         139.1273  144.0080  165.9115 C.ar    1  UNL1        0.0042
     10 C         140.3043  143.1640  166.3016 C.ar    1  UNL1       -0.0000
     11 C         141.4401  142.9712  165.3410 C.ar    1  UNL1        0.0042
     12 C         141.3988  143.6224  163.9903 C.ar    1  UNL1        0.0493
     13 C         140.1392  145.7688  160.8990 C.3     1  UNL1        0.2957
     14 S         140.1805  145.1176  162.2497 S.3     1  UNL1       -0.0220
     15 N         141.6502  145.4028  162.3422 N.2     1  UNL1       -0.1510
     16 O         138.7107  144.8324  162.1571 O.co2   1  UNL1       -0.6275
     17 H         142.1090  145.8666  161.6049 H       1  UNL1        0.2411
     18 C         140.0745  139.9635  166.8958 C.ar    1  UNL1        0.0060
     19 C         138.7076  139.4346  166.5767 C.ar    1  UNL1        0.0002
     20 C         138.5421  138.3563  165.5471 C.ar    1  UNL1        0.0000
     21 C         139.7435  137.8069  164.8367 C.ar    1  UNL1        0.0000
     22 C         141.1105  138.3358  165.1558 C.ar    1  UNL1        0.0000
     23 C         141.2760  139.4140  166.1853 C.ar    1  UNL1        0.0002
@<TRIPOS>UNITY_ATOM_ATTR
14 1
charge 1
16 1
charge -1
@<TRIPOS>BOND
     1    13    14    1
     2    14    15    2
     3    14    16    1
     4    14     7    1
     5     7     8   ar
     6     8     9   ar
     7     9    10   ar
     8    10     1    1
     9     1     2    2
    10     2    18    1
    11    18    19   ar
    12    19    20   ar
    13    20    21   ar
    14    21    22   ar
    15    22    23   ar
    16     2     3    1
    17     3     4    2
    18     3     5    1
    19     5     6    1
    20    10    11   ar
    21    11    12   ar
    22    12     7   ar
    23     6     1    1
    24    23    18   ar
    25    15    17    1
@<TRIPOS>MOLECULE
*****
 23 25 0 0 0
SMALL
GASTEIGER

@<TRIPOS>ATOM
      1 C         140.3553  142.5017  167.6403 C.2     1  UNL1        0.0275
      2 C         140.2359  141.0320  167.9154 C.2     1  UNL1        0.0752
      3 C         140.3256  140.8292  169.3989 C.2     1  UNL1        0.3413
      4 O         140.2532  139.5131  170.1148 O.2     1  UNL1       -0.2449
      5 O         140.5004  142.1736  170.0407 O.3     1  UNL1       -0.4404
      6 C         140.5187  143.2073  168.9539 C.3     1  UNL1        0.2356
      7 C         140.2427  144.4518  163.5864 C.ar    1  UNL1        0.1560
      8 C         141.4407  143.6493  163.9996 C.ar    1  UNL1        0.0493
      9 C         141.4783  142.9993  165.3509 C.ar    1  UNL1        0.0042
     10 C         140.3178  143.1517  166.2890 C.ar    1  UNL1       -0.0000
     11 C         139.1198  143.9542  165.8757 C.ar    1  UNL1        0.0042
     12 C         139.0823  144.6042  164.5244 C.ar    1  UNL1        0.0493
     13 C         140.1677  145.7518  160.8837 C.3     1  UNL1        0.2957
     14 S         140.2052  145.1018  162.2350 S.3     1  UNL1       -0.0220
     15 N         141.7002  145.2234  162.2520 N.2     1  UNL1       -0.1510
     16 O         138.7103  144.9802  162.2180 O.co2   1  UNL1       -0.6275
     17 H         142.1695  145.6328  161.4895 H       1  UNL1        0.2411
     18 C         140.0581  139.9542  166.8874 C.ar    1  UNL1        0.0060
     19 C         141.2468  139.4281  166.1389 C.ar    1  UNL1        0.0002
     20 C         141.0689  138.3503  165.1109 C.ar    1  UNL1        0.0000
     21 C         139.7024  137.7986  164.8313 C.ar    1  UNL1        0.0000
     22 C         138.5137  138.3247  165.5798 C.ar    1  UNL1        0.0000
     23 C         138.6915  139.4025  166.6078 C.ar    1  UNL1        0.0002
@<TRIPOS>UNITY_ATOM_ATTR
14 1
charge 1
16 1
charge -1
@<TRIPOS>BOND
     1    13    14    1
     2    14    15    2
     3    14    16    1
     4    14     7    1
     5     7     8   ar
     6     8     9   ar
     7     9    10   ar
     8    10     1    1
     9     1     2    2
    10     2    18    1
    11    18    19   ar
    12    19    20   ar
    13    20    21   ar
    14    21    22   ar
    15    22    23   ar
    16     2     3    1
    17     3     4    2
    18     3     5    1
    19     5     6    1
    20    10    11   ar
    21    11    12   ar
    22    12     7   ar
    23     6     1    1
    24    23    18   ar
    25    15    17    1
@<TRIPOS>MOLECULE
*****
 23 25 0 0 0
SMALL
GASTEIGER

@<TRIPOS>ATOM
      1 C         142.1895  141.8117  167.4319 C.2     1  UNL1        0.0275
      2 C         142.0813  140.3201  167.5477 C.2     1  UNL1        0.0752
      3 C         142.7393  139.9058  168.8304 C.2     1  UNL1        0.3413
      4 O         142.8611  138.5024  169.3457 O.2     1  UNL1       -0.2449
      5 O         143.2541  141.1414  169.5075 O.3     1  UNL1       -0.4404
      6 C         142.9143  142.3193  168.6431 C.3     1  UNL1        0.2356
      7 C         140.6158  144.3230  164.0456 C.ar    1  UNL1        0.1560
      8 C         139.7171  143.9590  165.1900 C.ar    1  UNL1        0.0493
      9 C         140.2416  143.1220  166.3188 C.ar    1  UNL1        0.0042
     10 C         141.6649  142.6488  166.3031 C.ar    1  UNL1       -0.0000
     11 C         142.5637  143.0127  165.1587 C.ar    1  UNL1        0.0042
     12 C         142.0391  143.8498  164.0299 C.ar    1  UNL1        0.0493
     13 C         139.5667  145.9971  161.7880 C.3     1  UNL1        0.2957
     14 S         140.0912  145.1600  162.9168 S.3     1  UNL1       -0.0220
     15 N         138.6890  144.7695  163.2789 N.2     1  UNL1       -0.1510
     16 O         141.4935  145.5506  162.5548 O.co2   1  UNL1       -0.6275
     17 H         137.9306  145.1171  162.7561 H       1  UNL1        0.2411
     18 C         141.4296  139.4037  166.5550 C.ar    1  UNL1        0.0060
     19 C         142.2715  138.5058  165.6978 C.ar    1  UNL1        0.0002
     20 C         141.6198  137.5894  164.7052 C.ar    1  UNL1        0.0000
     21 C         140.1261  137.5708  164.5697 C.ar    1  UNL1        0.0000
     22 C         139.2841  138.4687  165.4269 C.ar    1  UNL1        0.0000
     23 C         139.9358  139.3851  166.4196 C.ar    1  UNL1        0.0002
@<TRIPOS>UNITY_ATOM_ATTR
14 1
charge 1
16 1
charge -1
@<TRIPOS>BOND
     1    13    14    1
     2    14    15    2
     3    14    16    1
     4    14     7    1
     5     7     8   ar
     6     8     9   ar
     7     9    10   ar
     8    10     1    1
     9     1     2    2
    10     2    18    1
    11    18    19   ar
    12    19    20   ar
    13    20    21   ar
    14    21    22   ar
    15    22    23   ar
    16     2     3    1
    17     3     4    2
    18     3     5    1
    19     5     6    1
    20    10    11   ar
    21    11    12   ar
    22    12     7   ar
    23     6     1    1
    24    23    18   ar
    25    15    17    1
@<TRIPOS>MOLECULE
*****
 23 25 0 0 0
SMALL
GASTEIGER

@<TRIPOS>ATOM
      1 C         139.2172  139.2971  164.5150 C.2     1  UNL1        0.0275
      2 C         138.7485  140.3956  163.6074 C.2     1  UNL1        0.0752
      3 C         138.1112  139.7636  162.4055 C.2     1  UNL1        0.3413
      4 O         137.5055  140.4927  161.2430 O.2     1  UNL1       -0.2449
      5 O         138.1860  138.2746  162.5703 O.3     1  UNL1       -0.4404
      6 C         138.8695  137.9863  163.8741 C.3     1  UNL1        0.2356
      7 C         141.3003  139.8391  168.4668 C.ar    1  UNL1        0.1560
      8 C         139.8081  139.9653  168.3821 C.ar    1  UNL1        0.0493
      9 C         139.1137  139.7847  167.0648 C.ar    1  UNL1        0.0042
     10 C         139.9115  139.4778  165.8323 C.ar    1  UNL1       -0.0000
     11 C         141.4038  139.3516  165.9170 C.ar    1  UNL1        0.0042
     12 C         142.0982  139.5323  167.2343 C.ar    1  UNL1        0.0493
     13 C         142.6891  140.2005  171.1013 C.3     1  UNL1        0.2957
     14 S         141.9947  140.0198  169.7841 S.3     1  UNL1       -0.0220
     15 N         140.7929  139.4694  170.4931 N.2     1  UNL1       -0.1510
     16 O         143.1965  140.5702  169.0751 O.co2   1  UNL1       -0.6275
     17 H         140.7932  139.3915  171.4745 H       1  UNL1        0.2411
     18 C         138.8920  141.8676  163.8577 C.ar    1  UNL1        0.0060
     19 C         137.7413  142.6484  164.4198 C.ar    1  UNL1        0.0002
     20 C         137.8847  144.1205  164.6701 C.ar    1  UNL1        0.0000
     21 C         139.1789  144.8116  164.3582 C.ar    1  UNL1        0.0000
     22 C         140.3297  144.0308  163.7961 C.ar    1  UNL1        0.0000
     23 C         140.1863  142.5588  163.5458 C.ar    1  UNL1        0.0002
@<TRIPOS>UNITY_ATOM_ATTR
14 1
charge 1
16 1
charge -1
@<TRIPOS>BOND
     1    13    14    1
     2    14    15    2
     3    14    16    1
     4    14     7    1
     5     7     8   ar
     6     8     9   ar
     7     9    10   ar
     8    10     1    1
     9     1     2    2
    10     2    18    1
    11    18    19   ar
    12    19    20   ar
    13    20    21   ar
    14    21    22   ar
    15    22    23   ar
    16     2     3    1
    17     3     4    2
    18     3     5    1
    19     5     6    1
    20    10    11   ar
    21    11    12   ar
    22    12     7   ar
    23     6     1    1
    24    23    18   ar
    25    15    17    1
@<TRIPOS>MOLECULE
*****
 23 25 0 0 0
SMALL
GASTEIGER

@<TRIPOS>ATOM
      1 C         139.0981  143.3964  164.3616 C.2     1  UNL1        0.0275
      2 C         139.8897  144.0917  163.2939 C.2     1  UNL1        0.0752
      3 C         138.9253  144.7960  162.3862 C.2     1  UNL1        0.3413
      4 O         139.2854  145.6162  161.1831 O.2     1  UNL1       -0.2449
      5 O         137.5376  144.5360  162.8929 O.3     1  UNL1       -0.4404
      6 C         137.6444  143.6710  164.1137 C.3     1  UNL1        0.2356
      7 C         140.7876  140.9214  167.7187 C.ar    1  UNL1        0.1560
      8 C         140.2204  140.2495  166.5034 C.ar    1  UNL1        0.0493
      9 C         139.6572  141.0745  165.3844 C.ar    1  UNL1        0.0042
     10 C         139.6613  142.5714  165.4806 C.ar    1  UNL1       -0.0000
     11 C         140.2284  143.2433  166.6958 C.ar    1  UNL1        0.0042
     12 C         140.7916  142.4183  167.8149 C.ar    1  UNL1        0.0493
     13 C         141.9139  139.2714  169.9567 C.3     1  UNL1        0.2957
     14 S         141.3507  140.0964  168.8377 S.3     1  UNL1       -0.0220
     15 N         139.9627  139.8308  169.3404 N.2     1  UNL1       -0.1510
     16 O         142.7388  140.3621  168.3350 O.co2   1  UNL1       -0.6275
     17 H         139.8272  139.2747  170.1414 H       1  UNL1        0.2411
     18 C         141.3835  144.0840  163.1578 C.ar    1  UNL1        0.0060
     19 C         142.2023  145.1532  163.8182 C.ar    1  UNL1        0.0002
     20 C         143.6961  145.1456  163.6821 C.ar    1  UNL1        0.0000
     21 C         144.3711  144.0687  162.8855 C.ar    1  UNL1        0.0000
     22 C         143.5524  142.9994  162.2251 C.ar    1  UNL1        0.0000
     23 C         142.0586  143.0070  162.3612 C.ar    1  UNL1        0.0002
@<TRIPOS>UNITY_ATOM_ATTR
14 1
charge 1
16 1
charge -1
@<TRIPOS>BOND
     1    13    14    1
     2    14    15    2
     3    14    16    1
     4    14     7    1
     5     7     8   ar
     6     8     9   ar
     7     9    10   ar
     8    10     1    1
     9     1     2    2
    10     2    18    1
    11    18    19   ar
    12    19    20   ar
    13    20    21   ar
    14    21    22   ar
    15    22    23   ar
    16     2     3    1
    17     3     4    2
    18     3     5    1
    19     5     6    1
    20    10    11   ar
    21    11    12   ar
    22    12     7   ar
    23     6     1    1
    24    23    18   ar
    25    15    17    1
@<TRIPOS>MOLECULE
*****
 23 25 0 0 0
SMALL
GASTEIGER

@<TRIPOS>ATOM
      1 C         141.6311  138.4041  164.5278 C.2     1  UNL1        0.0275
      2 C         142.4776  138.9316  163.4074 C.2     1  UNL1        0.0752
      3 C         142.2860  138.0352  162.2200 C.2     1  UNL1        0.3413
      4 O         142.9438  138.1927  160.8812 O.2     1  UNL1       -0.2449
      5 O         141.3210  136.9538  162.6066 O.3     1  UNL1       -0.4404
      6 C         140.9163  137.1818  164.0328 C.3     1  UNL1        0.2356
      7 C         141.2951  140.1773  168.6500 C.ar    1  UNL1        0.1560
      8 C         140.0968  140.1429  167.7484 C.ar    1  UNL1        0.0493
      9 C         140.2088  139.5519  166.3743 C.ar    1  UNL1        0.0042
     10 C         141.5191  138.9952  165.9019 C.ar    1  UNL1       -0.0000
     11 C         142.7173  139.0296  166.8035 C.ar    1  UNL1        0.0042
     12 C         142.6053  139.6206  168.1776 C.ar    1  UNL1        0.0493
     13 C         141.0710  141.3595  171.3982 C.3     1  UNL1        0.2957
     14 S         141.1830  140.7684  170.0241 S.3     1  UNL1       -0.0220
     15 N         140.6892  139.4531  170.5496 N.2     1  UNL1       -0.1510
     16 O         141.6769  142.0837  169.4986 O.co2   1  UNL1       -0.6275
     17 H         140.4635  139.3575  171.5031 H       1  UNL1        0.2411
     18 C         143.3607  140.1427  163.4644 C.ar    1  UNL1        0.0060
     19 C         144.8122  139.9969  163.8129 C.ar    1  UNL1        0.0002
     20 C         145.6953  141.2081  163.8699 C.ar    1  UNL1        0.0000
     21 C         145.1268  142.5651  163.5783 C.ar    1  UNL1        0.0000
     22 C         143.6752  142.7111  163.2297 C.ar    1  UNL1        0.0000
     23 C         142.7921  141.4999  163.1728 C.ar    1  UNL1        0.0002
@<TRIPOS>UNITY_ATOM_ATTR
14 1
charge 1
16 1
charge -1
@<TRIPOS>BOND
     1    13    14    1
     2    14    15    2
     3    14    16    1
     4    14     7    1
     5     7     8   ar
     6     8     9   ar
     7     9    10   ar
     8    10     1    1
     9     1     2    2
    10     2    18    1
    11    18    19   ar
    12    19    20   ar
    13    20    21   ar
    14    21    22   ar
    15    22    23   ar
    16     2     3    1
    17     3     4    2
    18     3     5    1
    19     5     6    1
    20    10    11   ar
    21    11    12   ar
    22    12     7   ar
    23     6     1    1
    24    23    18   ar
    25    15    17    1
@<TRIPOS>MOLECULE
*****
 23 25 0 0 0
SMALL
GASTEIGER

@<TRIPOS>ATOM
      1 C         142.2774  140.4641  165.5651 C.2     1  UNL1        0.0275
      2 C         142.3974  140.3659  167.0571 C.2     1  UNL1        0.0752
      3 C         142.9545  139.0133  167.3892 C.2     1  UNL1        0.3413
      4 O         143.2375  138.4903  168.7663 O.2     1  UNL1       -0.2449
      5 O         143.1787  138.2756  166.1026 O.3     1  UNL1       -0.4404
      6 C         142.7602  139.1723  164.9752 C.3     1  UNL1        0.2356
      7 C         140.7389  144.0116  163.2632 C.ar    1  UNL1        0.1560
      8 C         142.0278  144.1127  164.0237 C.ar    1  UNL1        0.0493
      9 C         142.5406  142.9302  164.7910 C.ar    1  UNL1        0.0042
     10 C         141.7646  141.6466  164.7978 C.ar    1  UNL1       -0.0000
     11 C         140.4756  141.5455  164.0373 C.ar    1  UNL1        0.0042
     12 C         139.9628  142.7280  163.2700 C.ar    1  UNL1        0.0493
     13 C         139.7132  146.3765  161.7286 C.3     1  UNL1        0.2957
     14 S         140.2261  145.1940  162.4959 S.3     1  UNL1       -0.0220
     15 N         141.5602  145.3376  161.8254 N.2     1  UNL1       -0.1510
     16 O         138.8919  145.0505  163.1664 O.co2   1  UNL1       -0.6275
     17 H         141.7065  146.0568  161.1692 H       1  UNL1        0.2411
     18 C         142.0257  141.4328  168.0437 C.ar    1  UNL1        0.0060
     19 C         143.0409  141.9286  169.0303 C.ar    1  UNL1        0.0002
     20 C         142.6691  142.9956  170.0169 C.ar    1  UNL1        0.0000
     21 C         141.2822  143.5668  170.0169 C.ar    1  UNL1        0.0000
     22 C         140.2669  143.0710  169.0303 C.ar    1  UNL1        0.0000
     23 C         140.6386  142.0040  168.0437 C.ar    1  UNL1        0.0002
@<TRIPOS>UNITY_ATOM_ATTR
14 1
charge 1
16 1
charge -1
@<TRIPOS>BOND
     1    13    14    1
     2    14    15    2
     3    14    16    1
     4    14     7    1
     5     7     8   ar
     6     8     9   ar
     7     9    10   ar
     8    10     1    1
     9     1     2    2
    10     2    18    1
    11    18    19   ar
    12    19    20   ar
    13    20    21   ar
    14    21    22   ar
    15    22    23   ar
    16     2     3    1
    17     3     4    2
    18     3     5    1
    19     5     6    1
    20    10    11   ar
    21    11    12   ar
    22    12     7   ar
    23     6     1    1
    24    23    18   ar
    25    15    17    1
@<TRIPOS>MOLECULE
*****
 23 25 0 0 0
SMALL
GASTEIGER

@<TRIPOS>ATOM
      1 C         143.5879  140.4270  164.6043 C.2     1  UNL1        0.0275
      2 C         143.1468  139.5288  165.7218 C.2     1  UNL1        0.0752
      3 C         144.2229  138.5087  165.9489 C.2     1  UNL1        0.3413
      4 O         144.1972  137.4133  166.9733 O.2     1  UNL1       -0.2449
      5 O         145.3290  138.7764  164.9718 O.3     1  UNL1       -0.4404
      6 C         144.9365  139.9620  164.1408 C.3     1  UNL1        0.2356
      7 C         141.2718  143.9056  162.9356 C.ar    1  UNL1        0.1560
      8 C         142.2085  144.1123  164.0888 C.ar    1  UNL1        0.0493
      9 C         142.9805  142.9527  164.6450 C.ar    1  UNL1        0.0042
     10 C         142.8159  141.5865  164.0481 C.ar    1  UNL1       -0.0000
     11 C         141.8792  141.3799  162.8949 C.ar    1  UNL1        0.0042
     12 C         141.1072  142.5395  162.3386 C.ar    1  UNL1        0.0493
     13 C         139.7278  146.2248  161.8231 C.3     1  UNL1        0.2957
     14 S         140.4998  145.0652  162.3793 S.3     1  UNL1       -0.0220
     15 N         141.2883  146.0045  163.2430 N.2     1  UNL1       -0.1510
     16 O         139.7113  144.1259  161.5156 O.co2   1  UNL1       -0.6275
     17 H         141.1082  146.9718  163.2103 H       1  UNL1        0.2411
     18 C         141.8563  139.6325  166.4793 C.ar    1  UNL1        0.0060
     19 C         140.5579  139.3236  165.7947 C.ar    1  UNL1        0.0002
     20 C         139.2674  139.4273  166.5522 C.ar    1  UNL1        0.0000
     21 C         139.2752  139.8400  167.9943 C.ar    1  UNL1        0.0000
     22 C         140.5736  140.1489  168.6789 C.ar    1  UNL1        0.0000
     23 C         141.8641  140.0452  167.9215 C.ar    1  UNL1        0.0002
@<TRIPOS>UNITY_ATOM_ATTR
14 1
charge 1
16 1
charge -1
@<TRIPOS>BOND
     1    13    14    1
     2    14    15    2
     3    14    16    1
     4    14     7    1
     5     7     8   ar
     6     8     9   ar
     7     9    10   ar
     8    10     1    1
     9     1     2    2
    10     2    18    1
    11    18    19   ar
    12    19    20   ar
    13    20    21   ar
    14    21    22   ar
    15    22    23   ar
    16     2     3    1
    17     3     4    2
    18     3     5    1
    19     5     6    1
    20    10    11   ar
    21    11    12   ar
    22    12     7   ar
    23     6     1    1
    24    23    18   ar
    25    15    17    1
@<TRIPOS>MOLECULE
*****
 23 25 0 0 0
SMALL
GASTEIGER

@<TRIPOS>ATOM
      1 C         140.4511  140.2944  167.2930 C.2     1  UNL1        0.0275
      2 C         141.8534  140.7637  167.5445 C.2     1  UNL1        0.0752
      3 C         142.0859  140.7565  169.0264 C.2     1  UNL1        0.3413
      4 O         143.3543  141.1534  169.7218 O.2     1  UNL1       -0.2449
      5 O         140.8272  140.2827  169.6907 O.3     1  UNL1       -0.4404
      6 C         139.8169  139.9971  168.6194 C.3     1  UNL1        0.2356
      7 C         138.4909  139.8553  163.2662 C.ar    1  UNL1        0.1560
      8 C         138.6834  141.2183  163.8620 C.ar    1  UNL1        0.0493
      9 C         139.3367  141.3647  165.2043 C.ar    1  UNL1        0.0042
     10 C         139.7977  140.1480  165.9507 C.ar    1  UNL1       -0.0000
     11 C         139.6053  138.7850  165.3549 C.ar    1  UNL1        0.0042
     12 C         138.9519  138.6386  164.0126 C.ar    1  UNL1        0.0493
     13 C         137.1842  139.5626  160.5817 C.3     1  UNL1        0.2957
     14 S         137.8376  139.7090  161.9239 S.3     1  UNL1       -0.0220
     15 N         137.0435  140.9567  162.1744 N.2     1  UNL1       -0.1510
     16 O         138.6316  138.4613  161.6734 O.co2   1  UNL1       -0.6275
     17 H         136.4115  141.2829  161.4937 H       1  UNL1        0.2411
     18 C         142.8486  141.1691  166.4979 C.ar    1  UNL1        0.0060
     19 C         143.4028  140.1444  165.5531 C.ar    1  UNL1        0.0002
     20 C         144.3979  140.5498  164.5065 C.ar    1  UNL1        0.0000
     21 C         144.8389  141.9799  164.4048 C.ar    1  UNL1        0.0000
     22 C         144.2847  143.0046  165.3496 C.ar    1  UNL1        0.0000
     23 C         143.2895  142.5992  166.3962 C.ar    1  UNL1        0.0002
@<TRIPOS>UNITY_ATOM_ATTR
14 1
charge 1
16 1
charge -1
@<TRIPOS>BOND
     1    13    14    1
     2    14    15    2
     3    14    16    1
     4    14     7    1
     5     7     8   ar
     6     8     9   ar
     7     9    10   ar
     8    10     1    1
     9     1     2    2
    10     2    18    1
    11    18    19   ar
    12    19    20   ar
    13    20    21   ar
    14    21    22   ar
    15    22    23   ar
    16     2     3    1
    17     3     4    2
    18     3     5    1
    19     5     6    1
    20    10    11   ar
    21    11    12   ar
    22    12     7   ar
    23     6     1    1
    24    23    18   ar
    25    15    17    1
