@<TRIPOS>MOLECULE
*****
 20 21 0 0 0
SMALL
GASTEIGER

@<TRIPOS>ATOM
      1 C         141.5406  141.7149  169.5865 C.ar    1  UNL1        0.1219
      2 C         141.7247  141.0663  168.2466 C.ar    1  UNL1        0.0230
      3 C         140.6443  140.1926  167.6814 C.ar    1  UNL1        0.0383
      4 C         139.3798  139.9676  168.4562 C.ar    1  UNL1        0.1387
      5 C         139.1957  140.6162  169.7961 C.ar    1  UNL1        0.0383
      6 C         140.2761  141.4898  170.3612 C.ar    1  UNL1        0.0230
      7 N         143.7015  143.4622  170.7168 N.3     1  UNL1       -0.2035
      8 S         142.6211  142.5885  170.1517 S.O2    1  UNL1        0.0572
      9 O         141.9646  142.5287  171.4991 O.2     1  UNL1       -0.1532
     10 O         143.2775  142.6483  168.8043 O.2     1  UNL1       -0.1532
     11 H         144.0961  144.0387  169.9737 H       1  UNL1        0.1442
     12 H         144.4345  142.8786  171.1200 H       1  UNL1        0.1442
     13 O         138.2993  139.0939  167.8910 O.3     1  UNL1       -0.4740
     14 C         138.1368  138.9685  166.4051 C.3     1  UNL1        0.2226
     15 C         138.4708  137.6763  165.7205 C.3     1  UNL1        0.1200
     16 N         139.4319  137.6643  164.5689 N.3     1  UNL1       -0.2696
     17 C         139.0744  137.8214  163.1206 C.3     1  UNL1        0.0722
     18 C         140.3407  137.7473  162.3199 C.3     1  UNL1        0.0188
     19 C         141.4808  137.5443  163.2734 C.3     1  UNL1        0.0188
     20 C         140.9191  137.4931  164.6633 C.3     1  UNL1        0.0722
@<TRIPOS>BOND
     1     7     8    1
     2     8     9    2
     3     8    10    2
     4     8     1    1
     5     1     2   ar
     6     2     3   ar
     7     3     4   ar
     8     4    13    1
     9    13    14    1
    10    14    15    1
    11    15    16    1
    12    16    17    1
    13    17    18    1
    14    18    19    1
    15    19    20    1
    16     4     5   ar
    17     5     6   ar
    18     6     1   ar
    19    20    16    1
    20     7    11    1
    21     7    12    1
@<TRIPOS>MOLECULE
*****
 20 21 0 0 0
SMALL
GASTEIGER

@<TRIPOS>ATOM
      1 C         141.2809  140.1157  169.1339 C.ar    1  UNL1        0.1219
      2 C         142.2957  139.7722  168.0841 C.ar    1  UNL1        0.0230
      3 C         141.8536  139.4804  166.6807 C.ar    1  UNL1        0.0383
      4 C         140.3968  139.5321  166.3272 C.ar    1  UNL1        0.1387
      5 C         139.3821  139.8757  167.3770 C.ar    1  UNL1        0.0383
      6 C         139.8241  140.1675  168.7804 C.ar    1  UNL1        0.0230
      7 N         142.1651  140.6992  171.9407 N.3     1  UNL1       -0.2035
      8 S         141.7230  140.4075  170.5373 S.O2    1  UNL1        0.0572
      9 O         140.2964  140.6394  170.9385 O.2     1  UNL1       -0.1532
     10 O         143.1496  140.1755  170.1361 O.2     1  UNL1       -0.1532
     11 H         143.1256  141.0424  171.9302 H       1  UNL1        0.1442
     12 H         142.1149  139.8460  172.4973 H       1  UNL1        0.1442
     13 O         139.9547  139.2404  164.9238 O.3     1  UNL1       -0.4740
     14 C         138.5190  139.4329  164.5344 C.3     1  UNL1        0.2226
     15 C         138.1691  140.3123  163.3706 C.3     1  UNL1        0.1200
     16 N         138.0753  141.7980  163.5548 N.3     1  UNL1       -0.2696
     17 C         137.7495  142.7999  162.4870 C.3     1  UNL1        0.0722
     18 C         137.7637  144.1638  163.1113 C.3     1  UNL1        0.0188
     19 C         138.0982  144.0047  164.5649 C.3     1  UNL1        0.0188
     20 C         138.2907  142.5426  164.8389 C.3     1  UNL1        0.0722
@<TRIPOS>BOND
     1     7     8    1
     2     8     9    2
     3     8    10    2
     4     8     1    1
     5     1     2   ar
     6     2     3   ar
     7     3     4   ar
     8     4    13    1
     9    13    14    1
    10    14    15    1
    11    15    16    1
    12    16    17    1
    13    17    18    1
    14    18    19    1
    15    19    20    1
    16     4     5   ar
    17     5     6   ar
    18     6     1   ar
    19    20    16    1
    20     7    11    1
    21     7    12    1
@<TRIPOS>MOLECULE
*****
 20 21 0 0 0
SMALL
GASTEIGER

@<TRIPOS>ATOM
      1 C         141.7123  141.9613  169.2926 C.ar    1  UNL1        0.1219
      2 C         142.2528  141.6248  167.9345 C.ar    1  UNL1        0.0230
      3 C         141.4823  140.7141  167.0251 C.ar    1  UNL1        0.0383
      4 C         140.1713  140.1399  167.4738 C.ar    1  UNL1        0.1387
      5 C         139.6307  140.4764  168.8320 C.ar    1  UNL1        0.0383
      6 C         140.4012  141.3871  169.7413 C.ar    1  UNL1        0.0230
      7 N         143.2533  143.7827  171.1113 N.3     1  UNL1       -0.2035
      8 S         142.4828  142.8720  170.2020 S.O2    1  UNL1        0.0572
      9 O         143.6787  142.7570  169.3038 O.2     1  UNL1       -0.1532
     10 O         141.2869  142.9870  171.1001 O.2     1  UNL1       -0.1532
     11 H         142.8741  143.7201  172.0561 H       1  UNL1        0.1442
     12 H         143.1752  144.7430  170.7766 H       1  UNL1        0.1442
     13 O         139.4008  139.2292  166.5645 O.3     1  UNL1       -0.4740
     14 C         138.3214  139.7860  165.6843 C.3     1  UNL1        0.2226
     15 C         138.6823  140.5014  164.4162 C.3     1  UNL1        0.1200
     16 N         138.5065  141.9878  164.3175 N.3     1  UNL1       -0.2696
     17 C         139.1686  143.0137  165.1889 C.3     1  UNL1        0.0722
     18 C         138.7090  144.3692  164.7402 C.3     1  UNL1        0.0188
     19 C         137.7629  144.1811  163.5914 C.3     1  UNL1        0.0188
     20 C         137.6377  142.7093  163.3302 C.3     1  UNL1        0.0722
@<TRIPOS>BOND
     1     7     8    1
     2     8     9    2
     3     8    10    2
     4     8     1    1
     5     1     2   ar
     6     2     3   ar
     7     3     4   ar
     8     4    13    1
     9    13    14    1
    10    14    15    1
    11    15    16    1
    12    16    17    1
    13    17    18    1
    14    18    19    1
    15    19    20    1
    16     4     5   ar
    17     5     6   ar
    18     6     1   ar
    19    20    16    1
    20     7    11    1
    21     7    12    1
@<TRIPOS>MOLECULE
*****
 20 21 0 0 0
SMALL
GASTEIGER

@<TRIPOS>ATOM
      1 C         140.9803  140.0231  168.8875 C.ar    1  UNL1        0.1219
      2 C         139.7922  140.0804  167.9737 C.ar    1  UNL1        0.0230
      3 C         139.9751  139.9123  166.4944 C.ar    1  UNL1        0.0383
      4 C         141.3460  139.6870  165.9289 C.ar    1  UNL1        0.1387
      5 C         142.5341  139.6298  166.8428 C.ar    1  UNL1        0.0383
      6 C         142.3512  139.7978  168.3221 C.ar    1  UNL1        0.0230
      7 N         140.6145  140.3592  171.8461 N.3     1  UNL1       -0.2035
      8 S         140.7974  140.1912  170.3668 S.O2    1  UNL1        0.0572
      9 O         139.3622  139.7750  170.2367 O.2     1  UNL1       -0.1532
     10 O         142.2326  140.6074  170.4970 O.2     1  UNL1       -0.1532
     11 H         141.2872  141.0412  172.1966 H       1  UNL1        0.1442
     12 H         140.7645  139.4638  172.3111 H       1  UNL1        0.1442
     13 O         141.5289  139.5190  164.4496 O.3     1  UNL1       -0.4740
     14 C         142.2551  138.3203  163.9151 C.3     1  UNL1        0.2226
     15 C         143.4283  138.5015  162.9981 C.3     1  UNL1        0.1200
     16 N         144.2326  139.7666  163.0502 N.3     1  UNL1       -0.2696
     17 C         144.2723  140.8303  161.9934 C.3     1  UNL1        0.0722
     18 C         145.2027  141.9112  162.4583 C.3     1  UNL1        0.0188
     19 C         145.7380  141.5154  163.8025 C.3     1  UNL1        0.0188
     20 C         145.1385  140.1900  164.1683 C.3     1  UNL1        0.0722
@<TRIPOS>BOND
     1     7     8    1
     2     8     9    2
     3     8    10    2
     4     8     1    1
     5     1     2   ar
     6     2     3   ar
     7     3     4   ar
     8     4    13    1
     9    13    14    1
    10    14    15    1
    11    15    16    1
    12    16    17    1
    13    17    18    1
    14    18    19    1
    15    19    20    1
    16     4     5   ar
    17     5     6   ar
    18     6     1   ar
    19    20    16    1
    20     7    11    1
    21     7    12    1
@<TRIPOS>MOLECULE
*****
 20 21 0 0 0
SMALL
GASTEIGER

@<TRIPOS>ATOM
      1 C         142.6279  140.7232  168.9168 C.ar    1  UNL1        0.1219
      2 C         142.6365  139.4127  168.1871 C.ar    1  UNL1        0.0230
      3 C         142.8242  139.3840  166.6992 C.ar    1  UNL1        0.0383
      4 C         143.0032  140.6657  165.9409 C.ar    1  UNL1        0.1387
      5 C         142.9947  141.9762  166.6706 C.ar    1  UNL1        0.0383
      6 C         142.8070  142.0049  168.1586 C.ar    1  UNL1        0.0230
      7 N         142.2526  140.7806  171.8927 N.3     1  UNL1       -0.2035
      8 S         142.4402  140.7519  170.4047 S.O2    1  UNL1        0.0572
      9 O         143.3688  139.5822  170.5444 O.2     1  UNL1       -0.1532
     10 O         141.5116  141.9216  170.2650 O.2     1  UNL1       -0.1532
     11 H         141.3470  141.1951  172.1132 H       1  UNL1        0.1442
     12 H         142.9939  141.3371  172.3182 H       1  UNL1        0.1442
     13 O         143.1909  140.6370  164.4530 O.3     1  UNL1       -0.4740
     14 C         142.0168  140.3872  163.5536 C.3     1  UNL1        0.2226
     15 C         140.6464  140.8354  163.9673 C.3     1  UNL1        0.1200
     16 N         139.7903  139.9438  164.8172 N.3     1  UNL1       -0.2696
     17 C         139.3548  138.5504  164.4727 C.3     1  UNL1        0.0722
     18 C         138.5148  138.0344  165.6033 C.3     1  UNL1        0.0188
     19 C         138.4312  139.1090  166.6465 C.3     1  UNL1        0.0188
     20 C         139.2195  140.2891  166.1607 C.3     1  UNL1        0.0722
@<TRIPOS>BOND
     1     7     8    1
     2     8     9    2
     3     8    10    2
     4     8     1    1
     5     1     2   ar
     6     2     3   ar
     7     3     4   ar
     8     4    13    1
     9    13    14    1
    10    14    15    1
    11    15    16    1
    12    16    17    1
    13    17    18    1
    14    18    19    1
    15    19    20    1
    16     4     5   ar
    17     5     6   ar
    18     6     1   ar
    19    20    16    1
    20     7    11    1
    21     7    12    1
@<TRIPOS>MOLECULE
*****
 20 21 0 0 0
SMALL
GASTEIGER

@<TRIPOS>ATOM
      1 C         140.2423  141.7680  169.1557 C.ar    1  UNL1        0.1219
      2 C         139.7575  140.4602  168.6039 C.ar    1  UNL1        0.0230
      3 C         139.5857  140.2882  167.1237 C.ar    1  UNL1        0.0383
      4 C         139.8989  141.4239  166.1953 C.ar    1  UNL1        0.1387
      5 C         140.3837  142.7317  166.7471 C.ar    1  UNL1        0.0383
      6 C         140.5554  142.9038  168.2273 C.ar    1  UNL1        0.0230
      7 N         140.5857  142.1121  172.1160 N.3     1  UNL1       -0.2035
      8 S         140.4140  141.9401  170.6358 S.O2    1  UNL1        0.0572
      9 O         141.1191  143.2433  170.4026 O.2     1  UNL1       -0.1532
     10 O         139.7089  140.6368  170.8691 O.2     1  UNL1       -0.1532
     11 H         140.5897  141.1970  172.5665 H       1  UNL1        0.1442
     12 H         139.8153  142.6694  172.4852 H       1  UNL1        0.1442
     13 O         139.7272  141.2519  164.7152 O.3     1  UNL1       -0.4740
     14 C         139.5727  142.4552  163.8331 C.3     1  UNL1        0.2226
     15 C         140.6863  142.8583  162.9126 C.3     1  UNL1        0.1200
     16 N         141.9352  143.4738  163.4708 N.3     1  UNL1       -0.2696
     17 C         143.0673  142.7354  164.1213 C.3     1  UNL1        0.0722
     18 C         144.1030  143.7408  164.5291 C.3     1  UNL1        0.0188
     19 C         143.6110  145.1007  164.1306 C.3     1  UNL1        0.0188
     20 C         142.2713  144.9356  163.4766 C.3     1  UNL1        0.0722
@<TRIPOS>BOND
     1     7     8    1
     2     8     9    2
     3     8    10    2
     4     8     1    1
     5     1     2   ar
     6     2     3   ar
     7     3     4   ar
     8     4    13    1
     9    13    14    1
    10    14    15    1
    11    15    16    1
    12    16    17    1
    13    17    18    1
    14    18    19    1
    15    19    20    1
    16     4     5   ar
    17     5     6   ar
    18     6     1   ar
    19    20    16    1
    20     7    11    1
    21     7    12    1
@<TRIPOS>MOLECULE
*****
 20 21 0 0 0
SMALL
GASTEIGER

@<TRIPOS>ATOM
      1 C         140.7336  141.9613  169.3343 C.ar    1  UNL1        0.1219
      2 C         142.0408  142.5555  168.9006 C.ar    1  UNL1        0.0230
      3 C         142.8686  141.8659  167.8570 C.ar    1  UNL1        0.0383
      4 C         142.3892  140.5822  167.2470 C.ar    1  UNL1        0.1387
      5 C         141.0820  139.9880  167.6807 C.ar    1  UNL1        0.0383
      6 C         140.2542  140.6775  168.7243 C.ar    1  UNL1        0.0230
      7 N         139.0780  143.3405  171.4216 N.3     1  UNL1       -0.2035
      8 S         139.9058  142.6509  170.3780 S.O2    1  UNL1        0.0572
      9 O         140.0617  143.9495  169.6436 O.2     1  UNL1       -0.1532
     10 O         139.7499  141.3523  171.1123 O.2     1  UNL1       -0.1532
     11 H         139.1513  142.8333  172.3035 H       1  UNL1        0.1442
     12 H         138.1031  143.3628  171.1223 H       1  UNL1        0.1442
     13 O         143.2171  139.8926  166.2034 O.3     1  UNL1       -0.4740
     14 C         143.1909  140.3775  164.7842 C.3     1  UNL1        0.2226
     15 C         142.3044  139.7053  163.7781 C.3     1  UNL1        0.1200
     16 N         140.9698  139.1639  164.1976 N.3     1  UNL1       -0.2696
     17 C         140.6877  137.7582  164.6385 C.3     1  UNL1        0.0722
     18 C         139.2267  137.6586  164.9632 C.3     1  UNL1        0.0188
     19 C         138.6058  139.0028  164.7229 C.3     1  UNL1        0.0188
     20 C         139.6831  139.9331  164.2497 C.3     1  UNL1        0.0722
@<TRIPOS>BOND
     1     7     8    1
     2     8     9    2
     3     8    10    2
     4     8     1    1
     5     1     2   ar
     6     2     3   ar
     7     3     4   ar
     8     4    13    1
     9    13    14    1
    10    14    15    1
    11    15    16    1
    12    16    17    1
    13    17    18    1
    14    18    19    1
    15    19    20    1
    16     4     5   ar
    17     5     6   ar
    18     6     1   ar
    19    20    16    1
    20     7    11    1
    21     7    12    1
@<TRIPOS>MOLECULE
*****
 20 21 0 0 0
SMALL
GASTEIGER

@<TRIPOS>ATOM
      1 C         141.3047  142.2661  169.2593 C.ar    1  UNL1        0.1219
      2 C         140.2399  142.3606  168.2070 C.ar    1  UNL1        0.0230
      3 C         140.6207  142.4094  166.7570 C.ar    1  UNL1        0.0383
      4 C         142.0662  142.3636  166.3592 C.ar    1  UNL1        0.1387
      5 C         143.1310  142.2691  167.4114 C.ar    1  UNL1        0.0383
      6 C         142.7502  142.2204  168.8614 C.ar    1  UNL1        0.0230
      7 N         140.5432  142.1685  172.1594 N.3     1  UNL1       -0.2035
      8 S         140.9240  142.2173  170.7093 S.O2    1  UNL1        0.0572
      9 O         139.6027  141.6097  170.3420 O.2     1  UNL1       -0.1532
     10 O         142.2453  142.8249  171.0767 O.2     1  UNL1       -0.1532
     11 H         141.0480  142.8944  172.6680 H       1  UNL1        0.1442
     12 H         140.7834  141.2546  172.5434 H       1  UNL1        0.1442
     13 O         142.4469  142.4124  164.9091 O.3     1  UNL1       -0.4740
     14 C         142.5450  143.7324  164.2034 C.3     1  UNL1        0.2226
     15 C         141.4342  144.1859  163.3032 C.3     1  UNL1        0.1200
     16 N         140.0080  143.8982  163.6684 N.3     1  UNL1       -0.2696
     17 C         139.0931  144.8079  164.4336 C.3     1  UNL1        0.0722
     18 C         137.7660  144.1223  164.5706 C.3     1  UNL1        0.0188
     19 C         137.8607  142.7888  163.8901 C.3     1  UNL1        0.0188
     20 C         139.2463  142.6504  163.3325 C.3     1  UNL1        0.0722
@<TRIPOS>BOND
     1     7     8    1
     2     8     9    2
     3     8    10    2
     4     8     1    1
     5     1     2   ar
     6     2     3   ar
     7     3     4   ar
     8     4    13    1
     9    13    14    1
    10    14    15    1
    11    15    16    1
    12    16    17    1
    13    17    18    1
    14    18    19    1
    15    19    20    1
    16     4     5   ar
    17     5     6   ar
    18     6     1   ar
    19    20    16    1
    20     7    11    1
    21     7    12    1
@<TRIPOS>MOLECULE
*****
 20 21 0 0 0
SMALL
GASTEIGER

@<TRIPOS>ATOM
      1 C         140.7710  140.1583  169.1464 C.ar    1  UNL1        0.1219
      2 C         139.4946  140.2053  168.3600 C.ar    1  UNL1        0.0230
      3 C         139.5233  140.0211  166.8717 C.ar    1  UNL1        0.0383
      4 C         140.8286  139.7901  166.1696 C.ar    1  UNL1        0.1387
      5 C         142.1051  139.7432  166.9560 C.ar    1  UNL1        0.0383
      6 C         142.0763  139.9273  168.4443 C.ar    1  UNL1        0.0230
      7 N         140.7135  140.5266  172.1231 N.3     1  UNL1       -0.2035
      8 S         140.7422  140.3425  170.6348 S.O2    1  UNL1        0.0572
      9 O         139.3436  139.8020  170.6746 O.2     1  UNL1       -0.1532
     10 O         142.1409  140.8829  170.5949 O.2     1  UNL1       -0.1532
     11 H         141.3590  141.2713  172.3861 H       1  UNL1        0.1442
     12 H         140.9928  139.6578  172.5787 H       1  UNL1        0.1442
     13 O         140.8574  139.6059  164.6812 O.3     1  UNL1       -0.4740
     14 C         141.5752  140.5992  163.8164 C.3     1  UNL1        0.2226
     15 C         141.4026  142.0691  164.0604 C.3     1  UNL1        0.1200
     16 N         140.0277  142.6685  164.0875 N.3     1  UNL1       -0.2696
     17 C         139.5169  143.6580  165.0925 C.3     1  UNL1        0.0722
     18 C         138.0958  143.9846  164.7405 C.3     1  UNL1        0.0188
     19 C         137.7284  143.1969  163.5179 C.3     1  UNL1        0.0188
     20 C         138.9224  142.3836  163.1143 C.3     1  UNL1        0.0722
@<TRIPOS>BOND
     1     7     8    1
     2     8     9    2
     3     8    10    2
     4     8     1    1
     5     1     2   ar
     6     2     3   ar
     7     3     4   ar
     8     4    13    1
     9    13    14    1
    10    14    15    1
    11    15    16    1
    12    16    17    1
    13    17    18    1
    14    18    19    1
    15    19    20    1
    16     4     5   ar
    17     5     6   ar
    18     6     1   ar
    19    20    16    1
    20     7    11    1
    21     7    12    1
