@<TRIPOS>MOLECULE
*****
 35 38 0 0 0
SMALL
GASTEIGER

@<TRIPOS>ATOM
      1 C         142.3439  140.2789  162.8688 C.3     1  UNL1        0.0413
      2 C         142.3045  140.5677  161.3974 C.3     1  UNL1        0.0765
      3 N         143.5543  141.3152  161.0380 N.3     1  UNL1       -0.2723
      4 C         144.3662  141.4884  162.2873 C.3     1  UNL1        0.0741
      5 C         143.6182  140.8480  163.4188 C.3     1  UNL1        0.0410
      6 C         139.1929  138.0899  165.2202 C.ar    1  UNL1        0.1387
      7 C         139.0732  139.5690  165.0014 C.ar    1  UNL1        0.0366
      8 C         140.1235  140.2987  164.2176 C.ar    1  UNL1       -0.0011
      9 C         141.2936  139.5492  163.6526 C.ar    1  UNL1       -0.0209
     10 C         141.4133  138.0702  163.8714 C.ar    1  UNL1       -0.0011
     11 C         140.3629  137.3405  164.6552 C.ar    1  UNL1        0.0366
     12 C         137.4138  138.0590  167.1133 C.3     1  UNL1        0.2525
     13 O         138.1425  137.3602  166.0040 O.3     1  UNL1       -0.4714
     14 C         143.9268  141.8036  159.6696 C.3     1  UNL1        0.0721
     15 C         143.4401  143.1397  159.1919 C.3     1  UNL1        0.0173
     16 C         141.9892  143.4984  159.3187 C.3     1  UNL1        0.0015
     17 C         141.5283  144.3714  160.4482 C.3     1  UNL1        0.0028
     18 C         142.2423  144.3310  161.7667 C.3     1  UNL1        0.0171
     19 C         141.7814  145.2040  162.8961 C.3     1  UNL1        0.0686
     20 N         140.6067  146.1173  162.7070 N.3     1  UNL1       -0.2975
     21 C         139.8928  146.1577  161.3884 C.3     1  UNL1        0.0686
     22 C         140.3536  145.2847  160.2590 C.3     1  UNL1        0.0171
     23 H         140.9373  147.0643  162.8920 H       1  UNL1        0.1232
     24 C         144.0658  140.7873  164.8492 C.3     1  UNL1        0.0914
     25 N         143.2083  141.3773  165.9291 N.am    1  UNL1       -0.3008
     26 C         142.5824  140.4862  166.9607 C.2     1  UNL1        0.2459
     27 O         142.8140  139.0050  166.9124 O.2     1  UNL1       -0.2701
     28 H         143.0562  142.3495  165.9609 H       1  UNL1        0.1497
     29 C         141.7248  141.0763  168.0407 C.ar    1  UNL1        0.0542
     30 C         142.0938  142.3939  168.6554 C.ar    1  UNL1        0.0046
     31 C         141.2362  142.9841  169.7354 C.ar    1  UNL1        0.0010
     32 C         140.0097  142.2567  170.2007 C.ar    1  UNL1        0.0114
     33 C         139.6408  140.9391  169.5860 C.ar    1  UNL1        0.0578
     34 CL        138.4142  140.2116  170.0513 Cl      1  UNL1       -0.0822
     35 C         140.4983  140.3490  168.5060 C.ar    1  UNL1        0.0159
@<TRIPOS>BOND
     1    12    13    1
     2    13     6    1
     3     6     7   ar
     4     7     8   ar
     5     8     9   ar
     6     1     9    1
     7     1     2    1
     8     2     3    1
     9     3    14    1
    10    14    15    1
    11    15    16    1
    12    16    17    1
    13    17    18    1
    14    18    19    1
    15    19    20    1
    16    20    21    1
    17    21    22    1
    18     3     4    1
    19     4     5    1
    20     5    24    1
    21    24    25    1
    22    25    26   am
    23    26    27    2
    24    26    29    1
    25    29    30   ar
    26    30    31   ar
    27    31    32   ar
    28    32    33   ar
    29    33    34    1
    30    33    35   ar
    31     9    10   ar
    32    10    11   ar
    33    11     6   ar
    34     5     1    1
    35    35    29   ar
    36    22    17    1
    37    20    23    1
    38    25    28    1
@<TRIPOS>MOLECULE
*****
 35 38 0 0 0
SMALL
GASTEIGER

@<TRIPOS>ATOM
      1 C         140.8886  140.9194  163.0740 C.3     1  UNL1        0.0413
      2 C         140.4262  141.5370  161.7876 C.3     1  UNL1        0.0765
      3 N         141.5342  142.4019  161.2640 N.3     1  UNL1       -0.2723
      4 C         142.6814  142.3189  162.2267 C.3     1  UNL1        0.0741
      5 C         142.2824  141.4027  163.3454 C.3     1  UNL1        0.0410
      6 C         138.5118  138.1103  165.6642 C.ar    1  UNL1        0.1387
      7 C         138.2473  139.5857  165.7187 C.ar    1  UNL1        0.0366
      8 C         139.0396  140.5221  164.8553 C.ar    1  UNL1       -0.0011
      9 C         140.0963  139.9830  163.9374 C.ar    1  UNL1       -0.0209
     10 C         140.3608  138.5076  163.8829 C.ar    1  UNL1       -0.0011
     11 C         139.5686  137.5712  164.7463 C.ar    1  UNL1        0.0366
     12 C         136.8700  137.7157  167.6387 C.3     1  UNL1        0.2525
     13 O         137.7195  137.1739  166.5277 O.3     1  UNL1       -0.4714
     14 C         141.5007  143.2082  159.9995 C.3     1  UNL1        0.0721
     15 C         141.4378  144.7054  160.0662 C.3     1  UNL1        0.0173
     16 C         140.2465  145.3794  160.6799 C.3     1  UNL1        0.0015
     17 C         139.7833  144.9820  162.0502 C.3     1  UNL1        0.0028
     18 C         140.7086  145.1166  163.2230 C.3     1  UNL1        0.0171
     19 C         140.2453  144.7193  164.5933 C.3     1  UNL1        0.0686
     20 N         138.8568  144.1874  164.7907 N.3     1  UNL1       -0.2975
     21 C         137.9315  144.0528  163.6177 C.3     1  UNL1        0.0686
     22 C         138.3947  144.4501  162.2475 C.3     1  UNL1        0.0171
     23 H         138.3969  144.8056  165.4591 H       1  UNL1        0.1232
     24 C         143.1287  141.0345  164.5278 C.3     1  UNL1        0.0914
     25 N         142.5929  141.2105  165.9176 N.am    1  UNL1       -0.3008
     26 C         142.4427  140.0216  166.8198 C.2     1  UNL1        0.2459
     27 O         142.8285  138.6565  166.3321 O.2     1  UNL1       -0.2701
     28 H         142.3397  142.1064  166.2378 H       1  UNL1        0.1497
     29 C         141.9068  140.1977  168.2097 C.ar    1  UNL1        0.0542
     30 C         142.8482  140.4482  169.3503 C.ar    1  UNL1        0.0046
     31 C         142.3123  140.6243  170.7402 C.ar    1  UNL1        0.0010
     32 C         140.8351  140.5499  170.9895 C.ar    1  UNL1        0.0114
     33 C         139.8937  140.2994  169.8489 C.ar    1  UNL1        0.0578
     34 CL        138.4163  140.2249  170.0982 Cl      1  UNL1       -0.0822
     35 C         140.4296  140.1233  168.4590 C.ar    1  UNL1        0.0159
@<TRIPOS>BOND
     1    12    13    1
     2    13     6    1
     3     6     7   ar
     4     7     8   ar
     5     8     9   ar
     6     1     9    1
     7     1     2    1
     8     2     3    1
     9     3    14    1
    10    14    15    1
    11    15    16    1
    12    16    17    1
    13    17    18    1
    14    18    19    1
    15    19    20    1
    16    20    21    1
    17    21    22    1
    18     3     4    1
    19     4     5    1
    20     5    24    1
    21    24    25    1
    22    25    26   am
    23    26    27    2
    24    26    29    1
    25    29    30   ar
    26    30    31   ar
    27    31    32   ar
    28    32    33   ar
    29    33    34    1
    30    33    35   ar
    31     9    10   ar
    32    10    11   ar
    33    11     6   ar
    34     5     1    1
    35    35    29   ar
    36    22    17    1
    37    20    23    1
    38    25    28    1
@<TRIPOS>MOLECULE
*****
 35 38 0 0 0
SMALL
GASTEIGER

@<TRIPOS>ATOM
      1 C         139.2658  141.2591  165.9331 C.3     1  UNL1        0.0413
      2 C         139.6872  141.6147  167.3281 C.3     1  UNL1        0.0765
      3 N         139.5817  140.3798  168.1731 N.3     1  UNL1       -0.2723
      4 C         139.0951  139.2611  167.3004 C.3     1  UNL1        0.0741
      5 C         138.8999  139.8046  165.9160 C.3     1  UNL1        0.0410
      6 C         139.1242  144.0638  162.4169 C.ar    1  UNL1        0.1387
      7 C         137.9094  143.8769  163.2765 C.ar    1  UNL1        0.0366
      8 C         137.9565  142.9420  164.4486 C.ar    1  UNL1       -0.0011
      9 C         139.2186  142.1940  164.7610 C.ar    1  UNL1       -0.0209
     10 C         140.4335  142.3810  163.9014 C.ar    1  UNL1       -0.0011
     11 C         140.3863  143.3159  162.7293 C.ar    1  UNL1        0.0366
     12 C         139.8583  146.2788  161.2746 C.3     1  UNL1        0.2525
     13 O         139.0771  144.9987  161.2448 O.3     1  UNL1       -0.4714
     14 C         139.9059  140.2811  169.6343 C.3     1  UNL1        0.0721
     15 C         141.1578  139.5850  170.0794 C.3     1  UNL1        0.0173
     16 C         142.4990  140.1710  169.7508 C.3     1  UNL1        0.0015
     17 C         142.8143  140.5792  168.3421 C.3     1  UNL1        0.0028
     18 C         143.0901  142.0184  168.0222 C.3     1  UNL1        0.0171
     19 C         143.4054  142.4264  166.6136 C.3     1  UNL1        0.0686
     20 N         143.4448  141.3953  165.5250 N.3     1  UNL1       -0.2975
     21 C         143.1689  139.9560  165.8450 C.3     1  UNL1        0.0686
     22 C         142.8537  139.5479  167.2535 C.3     1  UNL1        0.0171
     23 H         144.3793  141.4326  165.1178 H       1  UNL1        0.1232
     24 C         138.4226  139.0295  164.7237 C.3     1  UNL1        0.0914
     25 N         139.2412  139.0067  163.4671 N.am    1  UNL1       -0.3008
     26 C         140.5242  138.2310  163.4217 C.2     1  UNL1        0.2459
     27 O         140.9887  137.4780  164.6330 O.2     1  UNL1       -0.2701
     28 H         138.9364  139.5009  162.6721 H       1  UNL1        0.1497
     29 C         141.3428  138.2083  162.1650 C.ar    1  UNL1        0.0542
     30 C         142.8268  138.0024  162.2401 C.ar    1  UNL1        0.0046
     31 C         143.6454  137.9797  160.9834 C.ar    1  UNL1        0.0010
     32 C         142.9801  138.1628  159.6515 C.ar    1  UNL1        0.0114
     33 C         141.4962  138.3686  159.5764 C.ar    1  UNL1        0.0578
     34 CL        140.8309  138.5517  158.2445 Cl      1  UNL1       -0.0822
     35 C         140.6776  138.3913  160.8331 C.ar    1  UNL1        0.0159
@<TRIPOS>BOND
     1    12    13    1
     2    13     6    1
     3     6     7   ar
     4     7     8   ar
     5     8     9   ar
     6     1     9    1
     7     1     2    1
     8     2     3    1
     9     3    14    1
    10    14    15    1
    11    15    16    1
    12    16    17    1
    13    17    18    1
    14    18    19    1
    15    19    20    1
    16    20    21    1
    17    21    22    1
    18     3     4    1
    19     4     5    1
    20     5    24    1
    21    24    25    1
    22    25    26   am
    23    26    27    2
    24    26    29    1
    25    29    30   ar
    26    30    31   ar
    27    31    32   ar
    28    32    33   ar
    29    33    34    1
    30    33    35   ar
    31     9    10   ar
    32    10    11   ar
    33    11     6   ar
    34     5     1    1
    35    35    29   ar
    36    22    17    1
    37    20    23    1
    38    25    28    1
@<TRIPOS>MOLECULE
*****
 35 38 0 0 0
SMALL
GASTEIGER

@<TRIPOS>ATOM
      1 C         142.2538  137.9206  158.0722 C.3     1  UNL1        0.0413
      2 C         142.9659  137.1628  156.9912 C.3     1  UNL1        0.0765
      3 N         141.9526  136.7655  155.9590 N.3     1  UNL1       -0.2723
      4 C         140.6142  137.2779  156.4020 C.3     1  UNL1        0.0741
      5 C         140.8004  137.9918  157.7080 C.3     1  UNL1        0.0410
      6 C         144.1454  139.6732  161.7600 C.ar    1  UNL1        0.1387
      7 C         143.7630  138.2231  161.7301 C.ar    1  UNL1        0.0366
      8 C         143.1324  137.6389  160.5009 C.ar    1  UNL1       -0.0011
      9 C         142.8843  138.5048  159.3015 C.ar    1  UNL1       -0.0209
     10 C         143.2668  139.9549  159.3314 C.ar    1  UNL1       -0.0011
     11 C         143.8973  140.5391  160.5606 C.ar    1  UNL1        0.0366
     12 C         144.8279  139.4582  164.2576 C.3     1  UNL1        0.2525
     13 O         144.7760  140.2574  162.9893 O.3     1  UNL1       -0.4714
     14 C         142.2292  135.9917  154.7041 C.3     1  UNL1        0.0721
     15 C         141.5549  134.6719  154.4728 C.3     1  UNL1        0.0173
     16 C         141.5383  133.6377  155.5591 C.3     1  UNL1        0.0015
     17 C         142.8289  133.1253  156.1266 C.3     1  UNL1        0.0028
     18 C         143.6070  132.0750  155.3909 C.3     1  UNL1        0.0171
     19 C         144.8976  131.5626  155.9584 C.3     1  UNL1        0.0686
     20 N         145.4099  132.1005  157.2615 N.3     1  UNL1       -0.2975
     21 C         144.6317  133.1508  157.9972 C.3     1  UNL1        0.0686
     22 C         143.3412  133.6632  157.4297 C.3     1  UNL1        0.0171
     23 H         146.3324  132.4938  157.0753 H       1  UNL1        0.1232
     24 C         139.7224  138.6596  158.5092 C.3     1  UNL1        0.0914
     25 N         139.5868  138.3678  159.9742 N.am    1  UNL1       -0.3008
     26 C         139.7918  139.4624  160.9792 C.2     1  UNL1        0.2459
     27 O         140.1324  140.8488  160.5190 O.2     1  UNL1       -0.2701
     28 H         139.3633  137.4578  160.2763 H       1  UNL1        0.1497
     29 C         139.6562  139.1706  162.4442 C.ar    1  UNL1        0.0542
     30 C         139.1650  137.8283  162.8993 C.ar    1  UNL1        0.0046
     31 C         139.0295  137.5365  164.3643 C.ar    1  UNL1        0.0010
     32 C         139.3851  138.5868  165.3744 C.ar    1  UNL1        0.0114
     33 C         139.8763  139.9290  164.9193 C.ar    1  UNL1        0.0578
     34 CL        140.2319  140.9795  165.9294 Cl      1  UNL1       -0.0822
     35 C         140.0119  140.2209  163.4543 C.ar    1  UNL1        0.0159
@<TRIPOS>BOND
     1    12    13    1
     2    13     6    1
     3     6     7   ar
     4     7     8   ar
     5     8     9   ar
     6     1     9    1
     7     1     2    1
     8     2     3    1
     9     3    14    1
    10    14    15    1
    11    15    16    1
    12    16    17    1
    13    17    18    1
    14    18    19    1
    15    19    20    1
    16    20    21    1
    17    21    22    1
    18     3     4    1
    19     4     5    1
    20     5    24    1
    21    24    25    1
    22    25    26   am
    23    26    27    2
    24    26    29    1
    25    29    30   ar
    26    30    31   ar
    27    31    32   ar
    28    32    33   ar
    29    33    34    1
    30    33    35   ar
    31     9    10   ar
    32    10    11   ar
    33    11     6   ar
    34     5     1    1
    35    35    29   ar
    36    22    17    1
    37    20    23    1
    38    25    28    1
@<TRIPOS>MOLECULE
*****
 35 38 0 0 0
SMALL
GASTEIGER

@<TRIPOS>ATOM
      1 C         140.0556  141.8346  161.8364 C.3     1  UNL1        0.0413
      2 C         139.6674  140.4317  161.4742 C.3     1  UNL1        0.0765
      3 N         139.1749  139.7514  162.7171 N.3     1  UNL1       -0.2723
      4 C         139.2588  140.7339  163.8474 C.3     1  UNL1        0.0741
      5 C         139.8030  142.0214  163.3031 C.3     1  UNL1        0.0410
      6 C         141.6906  144.9380  159.0176 C.ar    1  UNL1        0.1387
      7 C         142.4854  143.7009  159.3139 C.ar    1  UNL1        0.0366
      8 C         141.9404  142.6664  160.2535 C.ar    1  UNL1       -0.0011
      9 C         140.6006  142.8691  160.8968 C.ar    1  UNL1       -0.0209
     10 C         139.8058  144.1062  160.6004 C.ar    1  UNL1       -0.0011
     11 C         140.3508  145.1406  159.6609 C.ar    1  UNL1        0.0366
     12 C         142.0418  145.8184  156.5986 C.3     1  UNL1        0.2525
     13 O         142.2356  145.9725  158.0780 O.3     1  UNL1       -0.4714
     14 C         138.6848  138.3370  162.8128 C.3     1  UNL1        0.0721
     15 C         139.5598  137.2793  163.4174 C.3     1  UNL1        0.0173
     16 C         140.6305  137.6610  164.3962 C.3     1  UNL1        0.0015
     17 C         141.9704  138.1190  163.9012 C.3     1  UNL1        0.0028
     18 C         142.9288  138.7876  164.8415 C.3     1  UNL1        0.0171
     19 C         144.2687  139.2455  164.3464 C.3     1  UNL1        0.0686
     20 N         144.6501  139.0350  162.9112 N.3     1  UNL1       -0.2975
     21 C         143.6916  138.3664  161.9708 C.3     1  UNL1        0.0686
     22 C         142.3517  137.9084  162.4658 C.3     1  UNL1        0.0171
     23 H         145.5017  138.4735  162.9121 H       1  UNL1        0.1232
     24 C         140.0512  143.2754  164.0878 C.3     1  UNL1        0.0914
     25 N         140.2433  143.2048  165.5737 N.am    1  UNL1       -0.3008
     26 C         141.5290  142.6787  166.1396 C.2     1  UNL1        0.2459
     27 O         142.6227  142.2233  165.2196 O.2     1  UNL1       -0.2701
     28 H         139.5255  143.5037  166.1776 H       1  UNL1        0.1497
     29 C         141.7211  142.6081  167.6256 C.ar    1  UNL1        0.0542
     30 C         143.0689  142.2738  168.1926 C.ar    1  UNL1        0.0046
     31 C         143.2610  142.2032  169.6785 C.ar    1  UNL1        0.0010
     32 C         142.1053  142.4669  170.5976 C.ar    1  UNL1        0.0114
     33 C         140.7574  142.8013  170.0306 C.ar    1  UNL1        0.0578
     34 CL        139.6015  143.0650  170.9496 Cl      1  UNL1       -0.0822
     35 C         140.5653  142.8719  168.5446 C.ar    1  UNL1        0.0159
@<TRIPOS>BOND
     1    12    13    1
     2    13     6    1
     3     6     7   ar
     4     7     8   ar
     5     8     9   ar
     6     1     9    1
     7     1     2    1
     8     2     3    1
     9     3    14    1
    10    14    15    1
    11    15    16    1
    12    16    17    1
    13    17    18    1
    14    18    19    1
    15    19    20    1
    16    20    21    1
    17    21    22    1
    18     3     4    1
    19     4     5    1
    20     5    24    1
    21    24    25    1
    22    25    26   am
    23    26    27    2
    24    26    29    1
    25    29    30   ar
    26    30    31   ar
    27    31    32   ar
    28    32    33   ar
    29    33    34    1
    30    33    35   ar
    31     9    10   ar
    32    10    11   ar
    33    11     6   ar
    34     5     1    1
    35    35    29   ar
    36    22    17    1
    37    20    23    1
    38    25    28    1
@<TRIPOS>MOLECULE
*****
 35 38 0 0 0
SMALL
GASTEIGER

@<TRIPOS>ATOM
      1 C         140.0541  144.1425  160.3761 C.3     1  UNL1        0.0413
      2 C         140.7101  145.2499  159.6058 C.3     1  UNL1        0.0765
      3 N         140.3308  145.0986  158.1624 N.3     1  UNL1       -0.2723
      4 C         139.4403  143.8976  158.0407 C.3     1  UNL1        0.0741
      5 C         139.2694  143.3067  159.4088 C.3     1  UNL1        0.0410
      6 C         140.3826  143.4493  164.8102 C.ar    1  UNL1        0.1387
      7 C         141.4575  142.9493  163.8913 C.ar    1  UNL1        0.0366
      8 C         141.3480  143.1804  162.4132 C.ar    1  UNL1       -0.0011
      9 C         140.1636  143.9114  161.8541 C.ar    1  UNL1       -0.0209
     10 C         139.0887  144.4115  162.7731 C.ar    1  UNL1       -0.0011
     11 C         139.1982  144.1804  164.2511 C.ar    1  UNL1        0.0366
     12 C         140.2248  141.8560  166.8562 C.3     1  UNL1        0.2525
     13 O         140.4922  143.2183  166.2883 O.3     1  UNL1       -0.4714
     14 C         140.7655  145.9914  157.0383 C.3     1  UNL1        0.0721
     15 C         139.9992  146.0011  155.7489 C.3     1  UNL1        0.0173
     16 C         138.8106  146.9022  155.5897 C.3     1  UNL1        0.0015
     17 C         138.9634  148.3838  155.7681 C.3     1  UNL1        0.0028
     18 C         139.6076  149.2062  154.6918 C.3     1  UNL1        0.0171
     19 C         139.7603  150.6878  154.8702 C.3     1  UNL1        0.0686
     20 N         139.2689  151.3468  156.1248 N.3     1  UNL1       -0.2975
     21 C         138.6246  150.5242  157.2011 C.3     1  UNL1        0.0686
     22 C         138.4719  149.0427  157.0227 C.3     1  UNL1        0.0171
     23 H         138.5847  152.0478  155.8406 H       1  UNL1        0.1232
     24 C         138.4564  142.0931  159.7497 C.3     1  UNL1        0.0914
     25 N         138.9799  141.0927  160.7370 N.am    1  UNL1       -0.3008
     26 C         138.2583  140.8695  162.0330 C.2     1  UNL1        0.2459
     27 O         137.0130  141.6468  162.3416 O.2     1  UNL1       -0.2701
     28 H         139.7972  140.5826  160.5345 H       1  UNL1        0.1497
     29 C         138.7819  139.8691  163.0203 C.ar    1  UNL1        0.0542
     30 C         139.8787  138.9262  162.6227 C.ar    1  UNL1        0.0046
     31 C         140.4023  137.9258  163.6101 C.ar    1  UNL1        0.0010
     32 C         139.8291  137.8681  164.9951 C.ar    1  UNL1        0.0114
     33 C         138.7323  138.8109  165.3926 C.ar    1  UNL1        0.0578
     34 CL        138.1591  138.7533  166.7777 Cl      1  UNL1       -0.0822
     35 C         138.2087  139.8114  164.4053 C.ar    1  UNL1        0.0159
@<TRIPOS>BOND
     1    12    13    1
     2    13     6    1
     3     6     7   ar
     4     7     8   ar
     5     8     9   ar
     6     1     9    1
     7     1     2    1
     8     2     3    1
     9     3    14    1
    10    14    15    1
    11    15    16    1
    12    16    17    1
    13    17    18    1
    14    18    19    1
    15    19    20    1
    16    20    21    1
    17    21    22    1
    18     3     4    1
    19     4     5    1
    20     5    24    1
    21    24    25    1
    22    25    26   am
    23    26    27    2
    24    26    29    1
    25    29    30   ar
    26    30    31   ar
    27    31    32   ar
    28    32    33   ar
    29    33    34    1
    30    33    35   ar
    31     9    10   ar
    32    10    11   ar
    33    11     6   ar
    34     5     1    1
    35    35    29   ar
    36    22    17    1
    37    20    23    1
    38    25    28    1
@<TRIPOS>MOLECULE
*****
 35 38 0 0 0
SMALL
GASTEIGER

@<TRIPOS>ATOM
      1 C         141.5939  138.3889  160.3280 C.3     1  UNL1        0.0413
      2 C         142.6038  137.9483  159.3101 C.3     1  UNL1        0.0765
      3 N         141.9590  138.0169  157.9575 N.3     1  UNL1       -0.2723
      4 C         140.5506  138.4999  158.1394 C.3     1  UNL1        0.0741
      5 C         140.3250  138.7298  159.6045 C.3     1  UNL1        0.0410
      6 C         142.2551  138.6432  164.7719 C.ar    1  UNL1        0.1387
      7 C         141.4512  137.5150  164.1966 C.ar    1  UNL1        0.0366
      8 C         141.2308  137.4303  162.7153 C.ar    1  UNL1       -0.0011
      9 C         141.8143  138.4736  161.8093 C.ar    1  UNL1       -0.0209
     10 C         142.6182  139.6018  162.3846 C.ar    1  UNL1       -0.0011
     11 C         142.8386  139.6866  163.8659 C.ar    1  UNL1        0.0366
     12 C         142.5052  140.0654  166.9317 C.3     1  UNL1        0.2525
     13 O         142.4755  138.7280  166.2532 O.3     1  UNL1       -0.4714
     14 C         142.6085  137.6644  156.6522 C.3     1  UNL1        0.0721
     15 C         143.4092  136.4019  156.5298 C.3     1  UNL1        0.0173
     16 C         142.9275  135.1418  157.1857 C.3     1  UNL1        0.0015
     17 C         143.6167  133.8393  156.9047 C.3     1  UNL1        0.0028
     18 C         143.3947  133.1405  155.5962 C.3     1  UNL1        0.0171
     19 C         144.0838  131.8380  155.3153 C.3     1  UNL1        0.0686
     20 N         144.9949  131.2346  156.3428 N.3     1  UNL1       -0.2975
     21 C         145.2168  131.9336  157.6513 C.3     1  UNL1        0.0686
     22 C         144.5277  133.2359  157.9323 C.3     1  UNL1        0.0171
     23 H         145.9099  131.1353  155.9030 H       1  UNL1        0.1232
     24 C         139.0536  139.2154  160.2352 C.3     1  UNL1        0.0914
     25 N         139.0589  140.4611  161.0706 N.am    1  UNL1       -0.3008
     26 C         138.6234  140.4042  162.5049 C.2     1  UNL1        0.2459
     27 O         138.1825  139.1015  163.1037 O.2     1  UNL1       -0.2701
     28 H         139.3483  141.3161  160.6776 H       1  UNL1        0.1497
     29 C         138.6287  141.6500  163.3403 C.ar    1  UNL1        0.0542
     30 C         137.7441  142.8040  162.9717 C.ar    1  UNL1        0.0046
     31 C         137.7495  144.0498  163.8072 C.ar    1  UNL1        0.0010
     32 C         138.6393  144.1417  165.0112 C.ar    1  UNL1        0.0114
     33 C         139.5239  142.9877  165.3797 C.ar    1  UNL1        0.0578
     34 CL        140.4139  143.0795  166.5838 Cl      1  UNL1       -0.0822
     35 C         139.5186  141.7419  164.5443 C.ar    1  UNL1        0.0159
@<TRIPOS>BOND
     1    12    13    1
     2    13     6    1
     3     6     7   ar
     4     7     8   ar
     5     8     9   ar
     6     1     9    1
     7     1     2    1
     8     2     3    1
     9     3    14    1
    10    14    15    1
    11    15    16    1
    12    16    17    1
    13    17    18    1
    14    18    19    1
    15    19    20    1
    16    20    21    1
    17    21    22    1
    18     3     4    1
    19     4     5    1
    20     5    24    1
    21    24    25    1
    22    25    26   am
    23    26    27    2
    24    26    29    1
    25    29    30   ar
    26    30    31   ar
    27    31    32   ar
    28    32    33   ar
    29    33    34    1
    30    33    35   ar
    31     9    10   ar
    32    10    11   ar
    33    11     6   ar
    34     5     1    1
    35    35    29   ar
    36    22    17    1
    37    20    23    1
    38    25    28    1
@<TRIPOS>MOLECULE
*****
 35 38 0 0 0
SMALL
GASTEIGER

@<TRIPOS>ATOM
      1 C         143.3479  141.1028  166.1625 C.3     1  UNL1        0.0413
      2 C         143.3274  141.9986  167.3654 C.3     1  UNL1        0.0765
      3 N         142.9082  141.1769  168.5482 N.3     1  UNL1       -0.2723
      4 C         142.6695  139.7732  168.0763 C.3     1  UNL1        0.0741
      5 C         142.9412  139.7275  166.6018 C.3     1  UNL1        0.0410
      6 C         144.4378  142.3267  161.9715 C.ar    1  UNL1        0.1387
      7 C         143.0195  142.4498  162.4439 C.ar    1  UNL1        0.0366
      8 C         142.6562  142.0419  163.8409 C.ar    1  UNL1       -0.0011
      9 C         143.7112  141.5108  164.7655 C.ar    1  UNL1       -0.0209
     10 C         145.1295  141.3876  164.2930 C.ar    1  UNL1       -0.0011
     11 C         145.4928  141.7955  162.8960 C.ar    1  UNL1        0.0366
     12 C         144.0669  142.1460  159.4064 C.3     1  UNL1        0.2525
     13 O         144.8011  142.7346  160.5745 O.3     1  UNL1       -0.4714
     14 C         142.7546  141.6720  169.9558 C.3     1  UNL1        0.0721
     15 C         141.3856  141.8647  170.5379 C.3     1  UNL1        0.0173
     16 C         140.2662  142.3630  169.6727 C.3     1  UNL1        0.0015
     17 C         139.8726  141.6003  168.4423 C.3     1  UNL1        0.0028
     18 C         139.3678  140.1930  168.5618 C.3     1  UNL1        0.0171
     19 C         138.9743  139.4304  167.3315 C.3     1  UNL1        0.0686
     20 N         139.0857  140.0751  165.9818 N.3     1  UNL1       -0.2975
     21 C         139.5905  141.4826  165.8623 C.3     1  UNL1        0.0686
     22 C         139.9840  142.2452  167.0926 C.3     1  UNL1        0.0171
     23 H         138.1522  140.0613  165.5709 H       1  UNL1        0.1232
     24 C         142.8265  138.5186  165.7213 C.3     1  UNL1        0.0914
     25 N         141.8625  138.5165  164.5721 N.am    1  UNL1       -0.3008
     26 C         142.3757  138.5195  163.1626 C.2     1  UNL1        0.2459
     27 O         143.8529  138.5247  162.9023 O.2     1  UNL1       -0.2701
     28 H         140.8930  138.5131  164.7429 H       1  UNL1        0.1497
     29 C         141.4117  138.5174  162.0134 C.ar    1  UNL1        0.0542
     30 C         139.9895  138.0916  162.2282 C.ar    1  UNL1        0.0046
     31 C         139.0255  138.0895  161.0791 C.ar    1  UNL1        0.0010
     32 C         139.4836  138.5132  159.7150 C.ar    1  UNL1        0.0114
     33 C         140.9057  138.9390  159.5002 C.ar    1  UNL1        0.0578
     34 CL        141.3638  139.3628  158.1361 Cl      1  UNL1       -0.0822
     35 C         141.8697  138.9411  160.6494 C.ar    1  UNL1        0.0159
@<TRIPOS>BOND
     1    12    13    1
     2    13     6    1
     3     6     7   ar
     4     7     8   ar
     5     8     9   ar
     6     1     9    1
     7     1     2    1
     8     2     3    1
     9     3    14    1
    10    14    15    1
    11    15    16    1
    12    16    17    1
    13    17    18    1
    14    18    19    1
    15    19    20    1
    16    20    21    1
    17    21    22    1
    18     3     4    1
    19     4     5    1
    20     5    24    1
    21    24    25    1
    22    25    26   am
    23    26    27    2
    24    26    29    1
    25    29    30   ar
    26    30    31   ar
    27    31    32   ar
    28    32    33   ar
    29    33    34    1
    30    33    35   ar
    31     9    10   ar
    32    10    11   ar
    33    11     6   ar
    34     5     1    1
    35    35    29   ar
    36    22    17    1
    37    20    23    1
    38    25    28    1
@<TRIPOS>MOLECULE
*****
 35 38 0 0 0
SMALL
GASTEIGER

@<TRIPOS>ATOM
      1 C         139.2412  140.7619  164.8709 C.3     1  UNL1        0.0413
      2 C         139.5024  141.2847  166.2523 C.3     1  UNL1        0.0765
      3 N         139.3816  140.1385  167.2123 N.3     1  UNL1       -0.2723
      4 C         139.0457  138.9072  166.4242 C.3     1  UNL1        0.0741
      5 C         138.9589  139.2925  164.9771 C.3     1  UNL1        0.0410
      6 C         139.2949  143.1773  161.0745 C.ar    1  UNL1        0.1387
      7 C         140.5606  142.5556  161.5858 C.ar    1  UNL1        0.0366
      8 C         140.5426  141.7505  162.8513 C.ar    1  UNL1       -0.0011
      9 C         139.2591  141.5670  163.6054 C.ar    1  UNL1       -0.0209
     10 C         137.9934  142.1888  163.0941 C.ar    1  UNL1       -0.0011
     11 C         138.0113  142.9939  161.8286 C.ar    1  UNL1        0.0366
     12 C         140.3383  145.0608  159.6206 C.3     1  UNL1        0.2525
     13 O         139.3128  143.9825  159.8090 O.3     1  UNL1       -0.4714
     14 C         139.5646  140.2108  168.6994 C.3     1  UNL1        0.0721
     15 C         140.8844  139.8453  169.3112 C.3     1  UNL1        0.0173
     16 C         142.1288  140.5760  168.9020 C.3     1  UNL1        0.0015
     17 C         142.6909  140.3866  167.5241 C.3     1  UNL1        0.0028
     18 C         142.9490  139.0040  167.0030 C.3     1  UNL1        0.0171
     19 C         143.5111  138.8147  165.6251 C.3     1  UNL1        0.0686
     20 N         143.8150  140.0079  164.7686 N.3     1  UNL1       -0.2975
     21 C         143.5569  141.3906  165.2899 C.3     1  UNL1        0.0686
     22 C         142.9949  141.5799  166.6676 C.3     1  UNL1        0.0171
     23 H         143.2637  139.9068  163.9165 H       1  UNL1        0.1232
     24 C         138.6449  138.3703  163.8365 C.3     1  UNL1        0.0914
     25 N         139.6419  138.1760  162.7328 N.am    1  UNL1       -0.3008
     26 C         139.3355  138.6695  161.3498 C.2     1  UNL1        0.2459
     27 O         138.0321  139.3574  161.0706 O.2     1  UNL1       -0.2701
     28 H         140.4973  137.7245  162.9161 H       1  UNL1        0.1497
     29 C         140.3325  138.4752  160.2462 C.ar    1  UNL1        0.0542
     30 C         141.7894  138.3235  160.5696 C.ar    1  UNL1        0.0046
     31 C         142.7864  138.1292  159.4659 C.ar    1  UNL1        0.0010
     32 C         142.3267  138.0864  158.0388 C.ar    1  UNL1        0.0114
     33 C         140.8699  138.2381  157.7153 C.ar    1  UNL1        0.0578
     34 CL        140.4100  138.1953  156.2881 Cl      1  UNL1       -0.0822
     35 C         139.8728  138.4324  158.8190 C.ar    1  UNL1        0.0159
@<TRIPOS>BOND
     1    12    13    1
     2    13     6    1
     3     6     7   ar
     4     7     8   ar
     5     8     9   ar
     6     1     9    1
     7     1     2    1
     8     2     3    1
     9     3    14    1
    10    14    15    1
    11    15    16    1
    12    16    17    1
    13    17    18    1
    14    18    19    1
    15    19    20    1
    16    20    21    1
    17    21    22    1
    18     3     4    1
    19     4     5    1
    20     5    24    1
    21    24    25    1
    22    25    26   am
    23    26    27    2
    24    26    29    1
    25    29    30   ar
    26    30    31   ar
    27    31    32   ar
    28    32    33   ar
    29    33    34    1
    30    33    35   ar
    31     9    10   ar
    32    10    11   ar
    33    11     6   ar
    34     5     1    1
    35    35    29   ar
    36    22    17    1
    37    20    23    1
    38    25    28    1
