@<TRIPOS>MOLECULE
*****
 24 26 0 0 0
SMALL
GASTEIGER

@<TRIPOS>ATOM
      1 C         140.5192  139.0947  163.7759 C.2     1  UNL1        0.0596
      2 C         141.1950  140.0070  164.7564 C.2     1  UNL1        0.0324
      3 C         140.6465  140.1542  166.1447 C.2     1  UNL1        0.0889
      4 N         141.0947  140.9723  167.3193 N.2     1  UNL1       -0.2236
      5 C         140.1476  140.7129  168.4532 C.2     1  UNL1        0.1859
      6 N         139.1140  139.7345  167.9793 N.2     1  UNL1       -0.2387
      7 C         139.4224  139.3892  166.5526 C.3     1  UNL1        0.1679
      8 C         138.7468  138.4770  165.5721 C.2     1  UNL1        0.0164
      9 C         139.2952  138.3297  164.1838 C.2     1  UNL1        0.0690
     10 CL        138.6195  137.4175  163.2033 Cl      1  UNL1       -0.0812
     11 N         142.1646  138.6530  159.6108 N.3     1  UNL1       -0.2698
     12 C         142.6567  137.7591  160.7103 C.3     1  UNL1        0.0938
     13 C         142.1082  137.9064  162.0986 C.3     1  UNL1        0.1081
     14 N         141.0677  138.9474  162.3875 N.pl3   1  UNL1       -0.3057
     15 C         140.5756  139.8413  161.2880 C.3     1  UNL1        0.0888
     16 C         139.5350  140.8824  161.5769 C.3     1  UNL1        0.0229
     17 C         141.1240  139.6940  159.8996 C.3     1  UNL1        0.0921
     18 C         142.6861  137.1686  157.5433 C.3     1  UNL1        0.0188
     19 C         142.7129  138.5058  158.2224 C.3     1  UNL1        0.0722
     20 S         140.2210  141.3246  169.8209 S.3     1  UNL1       -0.0777
     21 C         141.3552  142.2411  170.1726 C.3     1  UNL1        0.0461
     22 C         140.5574  143.4148  169.6868 C.3     1  UNL1        0.0113
     23 C         142.1529  141.0674  170.6585 C.3     1  UNL1        0.0113
     24 C         142.4893  143.1576  170.5244 C.3     1  UNL1        0.0113
@<TRIPOS>BOND
     1    18    19    1
     2    19    11    1
     3    11    12    1
     4    12    13    1
     5    13    14    1
     6    14     1    1
     7     1     2    2
     8     2     3    1
     9     3     4    2
    10     4     5    1
    11     5    20    1
    12    20    21    1
    13    21    22    1
    14    21    23    1
    15    21    24    1
    16     5     6    2
    17     6     7    1
    18     7     8    1
    19     8     9    2
    20     9    10    1
    21    14    15    1
    22    15    16    1
    23    15    17    1
    24    17    11    1
    25     9     1    1
    26     7     3    1
@<TRIPOS>MOLECULE
*****
 24 26 0 0 0
SMALL
GASTEIGER

@<TRIPOS>ATOM
      1 C         140.0841  139.5966  163.5351 C.2     1  UNL1        0.0596
      2 C         140.5395  140.4812  164.6577 C.2     1  UNL1        0.0324
      3 C         140.0076  140.2675  166.0439 C.2     1  UNL1        0.0889
      4 N         140.2706  140.9753  167.3400 N.2     1  UNL1       -0.2236
      5 C         139.4460  140.3144  168.4045 C.2     1  UNL1        0.1859
      6 N         138.6733  139.1983  167.7664 N.2     1  UNL1       -0.2387
      7 C         139.0204  139.1693  166.3074 C.3     1  UNL1        0.1679
      8 C         138.5651  138.2848  165.1847 C.2     1  UNL1        0.0164
      9 C         139.0970  138.4985  163.7986 C.2     1  UNL1        0.0690
     10 CL        138.6417  137.6139  162.6760 Cl      1  UNL1       -0.0812
     11 N         141.6798  140.2377  159.3766 N.3     1  UNL1       -0.2698
     12 C         140.4608  140.9818  159.8351 C.3     1  UNL1        0.0938
     13 C         139.9289  140.7681  161.2213 C.3     1  UNL1        0.1081
     14 N         140.6161  139.8103  162.1489 N.pl3   1  UNL1       -0.3057
     15 C         141.8351  139.0662  161.6903 C.3     1  UNL1        0.0888
     16 C         142.5221  138.1083  162.6180 C.3     1  UNL1        0.0229
     17 C         142.3669  139.2799  160.3041 C.3     1  UNL1        0.0921
     18 C         143.2006  139.4846  157.4093 C.3     1  UNL1        0.0188
     19 C         142.2117  140.4513  157.9904 C.3     1  UNL1        0.0722
     20 S         139.4017  140.7017  169.8530 S.3     1  UNL1       -0.0777
     21 C         140.6027  141.3260  170.4995 C.3     1  UNL1        0.0461
     22 C         141.2989  139.9975  170.4891 C.3     1  UNL1        0.0113
     23 C         139.9064  142.6546  170.5098 C.3     1  UNL1        0.0113
     24 C         141.8036  141.9503  171.1459 C.3     1  UNL1        0.0113
@<TRIPOS>BOND
     1    18    19    1
     2    19    11    1
     3    11    12    1
     4    12    13    1
     5    13    14    1
     6    14     1    1
     7     1     2    2
     8     2     3    1
     9     3     4    2
    10     4     5    1
    11     5    20    1
    12    20    21    1
    13    21    22    1
    14    21    23    1
    15    21    24    1
    16     5     6    2
    17     6     7    1
    18     7     8    1
    19     8     9    2
    20     9    10    1
    21    14    15    1
    22    15    16    1
    23    15    17    1
    24    17    11    1
    25     9     1    1
    26     7     3    1
@<TRIPOS>MOLECULE
*****
 24 26 0 0 0
SMALL
GASTEIGER

@<TRIPOS>ATOM
      1 C         140.2245  143.2054  164.1444 C.2     1  UNL1        0.0596
      2 C         140.9194  142.7958  162.8797 C.2     1  UNL1        0.0324
      3 C         140.7466  143.6097  161.6316 C.2     1  UNL1        0.0889
      4 N         141.3014  143.4535  160.2468 N.2     1  UNL1       -0.2236
      5 C         140.7765  144.5805  159.4074 C.2     1  UNL1        0.1859
      6 N         139.8973  145.4331  160.2735 N.2     1  UNL1       -0.2387
      7 C         139.8788  144.8331  161.6482 C.3     1  UNL1        0.1679
      8 C         139.1839  145.2426  162.9128 C.2     1  UNL1        0.0164
      9 C         139.3568  144.4288  164.1609 C.2     1  UNL1        0.0690
     10 CL        138.6619  144.8384  165.4256 Cl      1  UNL1       -0.0812
     11 N         140.7431  140.7639  167.8888 N.3     1  UNL1       -0.2698
     12 C         141.7204  141.8542  167.5630 C.3     1  UNL1        0.0938
     13 C         141.5475  142.6681  166.3149 C.3     1  UNL1        0.1081
     14 N         140.3974  142.3916  165.3926 N.pl3   1  UNL1       -0.3057
     15 C         139.4201  141.3012  165.7183 C.3     1  UNL1        0.0888
     16 C         138.2700  141.0248  164.7959 C.3     1  UNL1        0.0229
     17 C         139.5930  140.4874  166.9664 C.3     1  UNL1        0.0921
     18 C         142.2704  139.4220  169.5064 C.3     1  UNL1        0.0188
     19 C         140.9159  139.9500  169.1368 C.3     1  UNL1        0.0722
     20 S         141.0779  144.8139  157.9567 S.3     1  UNL1       -0.0777
     21 C         139.9644  144.8252  156.9517 C.3     1  UNL1        0.0461
     22 C         139.8153  143.3401  157.1003 C.3     1  UNL1        0.0113
     23 C         140.1136  146.3104  156.8032 C.3     1  UNL1        0.0113
     24 C         138.8509  144.8365  155.9467 C.3     1  UNL1        0.0113
@<TRIPOS>BOND
     1    18    19    1
     2    19    11    1
     3    11    12    1
     4    12    13    1
     5    13    14    1
     6    14     1    1
     7     1     2    2
     8     2     3    1
     9     3     4    2
    10     4     5    1
    11     5    20    1
    12    20    21    1
    13    21    22    1
    14    21    23    1
    15    21    24    1
    16     5     6    2
    17     6     7    1
    18     7     8    1
    19     8     9    2
    20     9    10    1
    21    14    15    1
    22    15    16    1
    23    15    17    1
    24    17    11    1
    25     9     1    1
    26     7     3    1
@<TRIPOS>MOLECULE
*****
 24 26 0 0 0
SMALL
GASTEIGER

@<TRIPOS>ATOM
      1 C         140.1808  143.6223  162.8778 C.2     1  UNL1        0.0596
      2 C         141.4565  143.1115  163.4791 C.2     1  UNL1        0.0324
      3 C         141.5251  142.8077  164.9464 C.2     1  UNL1        0.0889
      4 N         142.6363  142.2964  165.8146 N.2     1  UNL1       -0.2236
      5 C         142.1158  142.1875  167.2172 C.2     1  UNL1        0.1859
      6 N         140.6830  142.6314  167.2158 N.2     1  UNL1       -0.2387
      7 C         140.3179  143.0147  165.8123 C.3     1  UNL1        0.1679
      8 C         139.0422  143.5256  165.2110 C.2     1  UNL1        0.0164
      9 C         138.9737  143.8294  163.7437 C.2     1  UNL1        0.0690
     10 CL        137.6979  144.3402  163.1424 Cl      1  UNL1       -0.0812
     11 N         139.9751  144.5338  158.4758 N.3     1  UNL1       -0.2698
     12 C         140.4920  145.5672  159.4323 C.3     1  UNL1        0.0938
     13 C         140.5605  145.2634  160.8996 C.3     1  UNL1        0.1081
     14 N         140.1122  143.9262  161.4104 N.pl3   1  UNL1       -0.3057
     15 C         139.5953  142.8928  160.4538 C.3     1  UNL1        0.0888
     16 C         139.1470  141.5555  160.9647 C.3     1  UNL1        0.0229
     17 C         139.5268  143.1966  158.9865 C.3     1  UNL1        0.0921
     18 C         140.0566  146.2503  156.5272 C.3     1  UNL1        0.0188
     19 C         139.9065  144.8375  157.0085 C.3     1  UNL1        0.0722
     20 S         142.8919  141.7172  168.4115 S.3     1  UNL1       -0.0777
     21 C         142.4032  140.5447  169.2094 C.3     1  UNL1        0.0461
     22 C         142.1490  141.4474  170.3801 C.3     1  UNL1        0.0113
     23 C         142.6574  139.6421  168.0387 C.3     1  UNL1        0.0113
     24 C         141.9145  139.3723  170.0072 C.3     1  UNL1        0.0113
@<TRIPOS>BOND
     1    18    19    1
     2    19    11    1
     3    11    12    1
     4    12    13    1
     5    13    14    1
     6    14     1    1
     7     1     2    2
     8     2     3    1
     9     3     4    2
    10     4     5    1
    11     5    20    1
    12    20    21    1
    13    21    22    1
    14    21    23    1
    15    21    24    1
    16     5     6    2
    17     6     7    1
    18     7     8    1
    19     8     9    2
    20     9    10    1
    21    14    15    1
    22    15    16    1
    23    15    17    1
    24    17    11    1
    25     9     1    1
    26     7     3    1
@<TRIPOS>MOLECULE
*****
 24 26 0 0 0
SMALL
GASTEIGER

@<TRIPOS>ATOM
      1 C         142.0487  143.3729  163.1096 C.2     1  UNL1        0.0596
      2 C         141.0737  143.0680  164.2080 C.2     1  UNL1        0.0324
      3 C         141.5726  142.7419  165.5845 C.2     1  UNL1        0.0889
      4 N         140.8557  142.4019  166.8575 N.2     1  UNL1       -0.2236
      5 C         141.8865  142.1706  167.9223 C.2     1  UNL1        0.1859
      6 N         143.2404  142.3676  167.3075 N.2     1  UNL1       -0.2387
      7 C         143.0464  142.7206  165.8626 C.3     1  UNL1        0.1679
      8 C         144.0214  143.0256  164.7642 C.2     1  UNL1        0.0164
      9 C         143.5225  143.3517  163.3877 C.2     1  UNL1        0.0690
     10 CL        144.4976  143.6566  162.2893 Cl      1  UNL1       -0.0812
     11 N         140.5521  144.3513  158.9800 N.3     1  UNL1       -0.2698
     12 C         140.6575  145.4318  160.0151 C.3     1  UNL1        0.0938
     13 C         141.1564  145.1057  161.3916 C.3     1  UNL1        0.1081
     14 N         141.5498  143.6990  161.7330 N.pl3   1  UNL1       -0.3057
     15 C         141.4444  142.6185  160.6980 C.3     1  UNL1        0.0888
     16 C         141.8379  141.2119  161.0395 C.3     1  UNL1        0.0229
     17 C         140.9455  142.9447  159.3215 C.3     1  UNL1        0.0921
     18 C         140.1556  146.0798  157.0814 C.3     1  UNL1        0.0188
     19 C         140.0533  144.6773  157.6036 C.3     1  UNL1        0.0722
     20 S         141.6116  141.8063  169.3512 S.3     1  UNL1       -0.0777
     21 C         140.3137  141.1523  169.7221 C.3     1  UNL1        0.0461
     22 C         139.8132  142.4560  170.2696 C.3     1  UNL1        0.0113
     23 C         140.8142  139.8485  169.1746 C.3     1  UNL1        0.0113
     24 C         139.0157  140.4983  170.0930 C.3     1  UNL1        0.0113
@<TRIPOS>BOND
     1    18    19    1
     2    19    11    1
     3    11    12    1
     4    12    13    1
     5    13    14    1
     6    14     1    1
     7     1     2    2
     8     2     3    1
     9     3     4    2
    10     4     5    1
    11     5    20    1
    12    20    21    1
    13    21    22    1
    14    21    23    1
    15    21    24    1
    16     5     6    2
    17     6     7    1
    18     7     8    1
    19     8     9    2
    20     9    10    1
    21    14    15    1
    22    15    16    1
    23    15    17    1
    24    17    11    1
    25     9     1    1
    26     7     3    1
@<TRIPOS>MOLECULE
*****
 24 26 0 0 0
SMALL
GASTEIGER

@<TRIPOS>ATOM
      1 C         142.1477  143.4280  162.9757 C.2     1  UNL1        0.0596
      2 C         141.4001  142.2565  163.5404 C.2     1  UNL1        0.0324
      3 C         141.7490  141.7294  164.9007 C.2     1  UNL1        0.0889
      4 N         141.1913  140.5976  165.7119 N.2     1  UNL1       -0.2236
      5 C         141.9430  140.5424  167.0087 C.2     1  UNL1        0.1859
      6 N         142.9652  141.6401  166.9991 N.2     1  UNL1       -0.2387
      7 C         142.8453  142.3737  165.6963 C.3     1  UNL1        0.1679
      8 C         143.5928  143.5452  165.1315 C.2     1  UNL1        0.0164
      9 C         143.2439  144.0723  163.7712 C.2     1  UNL1        0.0690
     10 CL        143.9915  145.2438  163.2065 Cl      1  UNL1       -0.0812
     11 N         141.1012  145.0094  158.8947 N.3     1  UNL1       -0.2698
     12 C         142.1734  143.9712  159.0444 C.3     1  UNL1        0.0938
     13 C         142.5222  143.4441  160.4047 C.3     1  UNL1        0.1081
     14 N         141.7988  143.9552  161.6153 N.pl3   1  UNL1       -0.3057
     15 C         140.7266  144.9934  161.4656 C.3     1  UNL1        0.0888
     16 C         140.0032  145.5045  162.6763 C.3     1  UNL1        0.0229
     17 C         140.3778  145.5205  160.1053 C.3     1  UNL1        0.0921
     18 C         141.8071  145.6265  156.4717 C.3     1  UNL1        0.0188
     19 C         140.7523  145.5366  157.5345 C.3     1  UNL1        0.0722
     20 S         141.7128  139.5617  168.1202 S.3     1  UNL1       -0.0777
     21 C         141.2045  140.0390  169.4482 C.3     1  UNL1        0.0461
     22 C         139.8460  140.2557  168.8503 C.3     1  UNL1        0.0113
     23 C         142.5630  139.8222  170.0462 C.3     1  UNL1        0.0113
     24 C         140.6961  140.5162  170.7763 C.3     1  UNL1        0.0113
@<TRIPOS>BOND
     1    18    19    1
     2    19    11    1
     3    11    12    1
     4    12    13    1
     5    13    14    1
     6    14     1    1
     7     1     2    2
     8     2     3    1
     9     3     4    2
    10     4     5    1
    11     5    20    1
    12    20    21    1
    13    21    22    1
    14    21    23    1
    15    21    24    1
    16     5     6    2
    17     6     7    1
    18     7     8    1
    19     8     9    2
    20     9    10    1
    21    14    15    1
    22    15    16    1
    23    15    17    1
    24    17    11    1
    25     9     1    1
    26     7     3    1
@<TRIPOS>MOLECULE
*****
 24 26 0 0 0
SMALL
GASTEIGER

@<TRIPOS>ATOM
      1 C         140.5115  139.3946  164.2797 C.2     1  UNL1        0.0596
      2 C         141.1362  139.9568  163.0372 C.2     1  UNL1        0.0324
      3 C         140.7341  139.4303  161.6915 C.2     1  UNL1        0.0889
      4 N         141.1736  139.7862  160.3022 N.2     1  UNL1       -0.2236
      5 C         140.4186  138.9175  159.3403 C.2     1  UNL1        0.1859
      6 N         139.5124  138.0247  160.1351 N.2     1  UNL1       -0.2387
      7 C         139.7075  138.3415  161.5882 C.3     1  UNL1        0.1679
      8 C         139.0828  137.7794  162.8307 C.2     1  UNL1        0.0164
      9 C         139.4849  138.3060  164.1765 C.2     1  UNL1        0.0690
     10 CL        138.8602  137.7438  165.4190 Cl      1  UNL1       -0.0812
     11 N         141.7176  140.9744  168.3171 N.3     1  UNL1       -0.2698
     12 C         140.5329  141.5586  167.6065 C.3     1  UNL1        0.0938
     13 C         140.1308  141.0320  166.2607 C.3     1  UNL1        0.1081
     14 N         140.9136  139.9212  165.6256 N.pl3   1  UNL1       -0.3057
     15 C         142.0983  139.3370  166.3362 C.3     1  UNL1        0.0888
     16 C         142.8810  138.2261  165.7009 C.3     1  UNL1        0.0229
     17 C         142.5004  139.8635  167.6819 C.3     1  UNL1        0.0921
     18 C         143.4647  142.1390  169.8473 C.3     1  UNL1        0.0188
     19 C         142.1197  141.5009  169.6628 C.3     1  UNL1        0.0722
     20 S         140.5471  138.9381  157.8460 S.3     1  UNL1       -0.0777
     21 C         140.9941  137.7071  157.1146 C.3     1  UNL1        0.0461
     22 C         139.6187  137.5509  156.5368 C.3     1  UNL1        0.0113
     23 C         142.3695  137.8633  157.6925 C.3     1  UNL1        0.0113
     24 C         141.4412  136.4761  156.3833 C.3     1  UNL1        0.0113
@<TRIPOS>BOND
     1    18    19    1
     2    19    11    1
     3    11    12    1
     4    12    13    1
     5    13    14    1
     6    14     1    1
     7     1     2    2
     8     2     3    1
     9     3     4    2
    10     4     5    1
    11     5    20    1
    12    20    21    1
    13    21    22    1
    14    21    23    1
    15    21    24    1
    16     5     6    2
    17     6     7    1
    18     7     8    1
    19     8     9    2
    20     9    10    1
    21    14    15    1
    22    15    16    1
    23    15    17    1
    24    17    11    1
    25     9     1    1
    26     7     3    1
@<TRIPOS>MOLECULE
*****
 24 26 0 0 0
SMALL
GASTEIGER

@<TRIPOS>ATOM
      1 C         143.0223  140.7338  163.6334 C.2     1  UNL1        0.0596
      2 C         142.4424  141.5439  164.7549 C.2     1  UNL1        0.0324
      3 C         142.2880  140.9358  166.1174 C.2     1  UNL1        0.0889
      4 N         141.7534  141.4849  167.4068 N.2     1  UNL1       -0.2236
      5 C         141.8484  140.4061  168.4447 C.2     1  UNL1        0.1859
      6 N         142.4417  139.1903  167.7967 N.2     1  UNL1       -0.2387
      7 C         142.7134  139.5177  166.3583 C.3     1  UNL1        0.1679
      8 C         143.2932  138.7077  165.2369 C.2     1  UNL1        0.0164
      9 C         143.4476  139.3158  163.8744 C.2     1  UNL1        0.0690
     10 CL        144.0275  138.5058  162.7529 Cl      1  UNL1       -0.0812
     11 N         143.4855  142.5582  159.5459 N.3     1  UNL1       -0.2698
     12 C         142.1809  141.9351  159.9457 C.3     1  UNL1        0.0938
     13 C         142.0265  141.3271  161.3081 C.3     1  UNL1        0.1081
     14 N         143.1767  141.3420  162.2708 N.pl3   1  UNL1       -0.3057
     15 C         144.4813  141.9650  161.8711 C.3     1  UNL1        0.0888
     16 C         145.6315  141.9799  162.8339 C.3     1  UNL1        0.0229
     17 C         144.6357  142.5731  160.5086 C.3     1  UNL1        0.0921
     18 C         144.1410  142.3318  157.0421 C.3     1  UNL1        0.0188
     19 C         143.6400  143.1663  158.1835 C.3     1  UNL1        0.0722
     20 S         141.4245  140.5227  169.8788 S.3     1  UNL1       -0.0777
     21 C         140.5752  141.6783  170.3184 C.3     1  UNL1        0.0461
     22 C         141.8102  142.4451  170.6885 C.3     1  UNL1        0.0113
     23 C         139.3403  140.9116  169.9482 C.3     1  UNL1        0.0113
     24 C         139.7260  142.8340  170.7579 C.3     1  UNL1        0.0113
@<TRIPOS>BOND
     1    18    19    1
     2    19    11    1
     3    11    12    1
     4    12    13    1
     5    13    14    1
     6    14     1    1
     7     1     2    2
     8     2     3    1
     9     3     4    2
    10     4     5    1
    11     5    20    1
    12    20    21    1
    13    21    22    1
    14    21    23    1
    15    21    24    1
    16     5     6    2
    17     6     7    1
    18     7     8    1
    19     8     9    2
    20     9    10    1
    21    14    15    1
    22    15    16    1
    23    15    17    1
    24    17    11    1
    25     9     1    1
    26     7     3    1
@<TRIPOS>MOLECULE
*****
 24 26 0 0 0
SMALL
GASTEIGER

@<TRIPOS>ATOM
      1 C         142.5649  140.1702  163.4156 C.2     1  UNL1        0.0596
      2 C         141.5619  139.5915  162.4621 C.2     1  UNL1        0.0324
      3 C         141.9917  139.1629  161.0904 C.2     1  UNL1        0.0889
      4 N         141.2342  138.5634  159.9429 N.2     1  UNL1       -0.2236
      5 C         142.1987  138.3429  158.8155 C.2     1  UNL1        0.1859
      6 N         143.5524  138.8061  159.2663 N.2     1  UNL1       -0.2387
      7 C         143.4244  139.3129  160.6723 C.3     1  UNL1        0.1679
      8 C         144.4273  139.8916  161.6258 C.2     1  UNL1        0.0164
      9 C         143.9975  140.3202  162.9975 C.2     1  UNL1        0.0690
     10 CL        145.0005  140.8989  163.9510 Cl      1  UNL1       -0.0812
     11 N         141.2756  141.4563  167.5307 N.3     1  UNL1       -0.2698
     12 C         141.1099  142.3885  166.3673 C.3     1  UNL1        0.0938
     13 C         141.5396  141.9598  164.9957 C.3     1  UNL1        0.1081
     14 N         142.1351  140.5989  164.7874 N.pl3   1  UNL1       -0.3057
     15 C         142.3008  139.6667  165.9508 C.3     1  UNL1        0.0888
     16 C         142.8963  138.3058  165.7424 C.3     1  UNL1        0.0229
     17 C         141.8710  140.0954  167.3225 C.3     1  UNL1        0.0921
     18 C         140.4565  143.3114  169.1549 C.3     1  UNL1        0.0188
     19 C         140.8458  141.8849  168.9024 C.3     1  UNL1        0.0722
     20 S         141.8678  137.7613  157.4731 S.3     1  UNL1       -0.0777
     21 C         142.9692  137.3373  156.5473 C.3     1  UNL1        0.0461
     22 C         142.9824  138.7069  155.9357 C.3     1  UNL1        0.0113
     23 C         142.9561  135.9677  157.1588 C.3     1  UNL1        0.0113
     24 C         144.0706  136.9133  155.6215 C.3     1  UNL1        0.0113
@<TRIPOS>BOND
     1    18    19    1
     2    19    11    1
     3    11    12    1
     4    12    13    1
     5    13    14    1
     6    14     1    1
     7     1     2    2
     8     2     3    1
     9     3     4    2
    10     4     5    1
    11     5    20    1
    12    20    21    1
    13    21    22    1
    14    21    23    1
    15    21    24    1
    16     5     6    2
    17     6     7    1
    18     7     8    1
    19     8     9    2
    20     9    10    1
    21    14    15    1
    22    15    16    1
    23    15    17    1
    24    17    11    1
    25     9     1    1
    26     7     3    1
