@<TRIPOS>MOLECULE
*****
 31 35 0 0 0
SMALL
GASTEIGER

@<TRIPOS>ATOM
      1 C         140.4369  140.9619  161.4824 C.ar    1  UNL1        0.0033
      2 C         139.3443  141.8231  160.9216 C.ar    1  UNL1        0.0024
      3 C         138.3260  142.4343  161.8380 C.ar    1  UNL1        0.0296
      4 C         138.4004  142.1842  163.3151 C.ar    1  UNL1        0.1402
      5 F         137.3822  142.7954  164.2314 F       1  UNL1       -0.2042
      6 C         139.4931  141.3230  163.8759 C.ar    1  UNL1        0.0304
      7 C         140.5113  140.7118  162.9596 C.ar    1  UNL1        0.0024
      8 C         139.5674  141.0729  165.3530 C.ar    1  UNL1        0.0359
      9 C         140.2873  142.0428  166.2426 C.ar    1  UNL1        0.0006
     10 C         140.3616  141.7927  167.7197 C.ar    1  UNL1        0.0023
     11 C         139.7162  140.5728  168.3073 C.ar    1  UNL1        0.0542
     12 C         138.9964  139.6030  167.4178 C.ar    1  UNL1        0.0411
     13 C         138.9220  139.8530  165.9406 C.ar    1  UNL1        0.1388
     14 C         139.9528  140.5911  169.7884 C.2     1  UNL1        0.2492
     15 O         139.4807  139.5593  170.7695 O.2     1  UNL1       -0.2699
     16 N         140.7445  141.8223  170.1162 N.am    1  UNL1       -0.2702
     17 C         141.2030  142.2378  171.4827 C.3     1  UNL1        0.1155
     18 C         140.9971  142.5649  168.8377 C.3     1  UNL1        0.1206
     19 O         138.2022  138.8831  165.0511 O.3     1  UNL1       -0.4714
     20 C         138.9271  137.6919  164.4986 C.3     1  UNL1        0.2525
     21 N         141.3084  137.9702  157.5489 N.ar    1  UNL1       -0.2931
     22 C         139.8413  138.0522  157.8505 C.ar    1  UNL1        0.1797
     23 N         139.6608  138.9590  159.0316 N.ar    1  UNL1       -0.2222
     24 C         141.0165  139.4375  159.4600 C.ar    1  UNL1        0.1203
     25 C         141.4552  140.3507  160.5661 C.ar    1  UNL1        0.0417
     26 C         142.9121  140.6528  160.7559 C.ar    1  UNL1        0.1238
     27 N         143.9303  140.0416  159.8396 N.ar    1  UNL1       -0.1449
     28 N         143.4916  139.1284  158.7335 N.ar    1  UNL1       -0.1285
     29 C         142.0347  138.8263  158.5436 C.ar    1  UNL1        0.1843
     30 C         142.7406  135.9468  156.7711 C.3     1  UNL1        0.0266
     31 C         141.9386  137.1721  156.4462 C.3     1  UNL1        0.1091
@<TRIPOS>BOND
     1    30    31    1
     2    31    21    1
     3    21    22   ar
     4    22    23   ar
     5    23    24   ar
     6    24    25   ar
     7    25     1    1
     8     1     2   ar
     9     2     3   ar
    10     3     4   ar
    11     4     5    1
    12     4     6   ar
    13     6     8    1
    14     8     9   ar
    15     9    10   ar
    16    10    11   ar
    17    11    12   ar
    18    12    13   ar
    19    13    19    1
    20    19    20    1
    21    11    14    1
    22    14    15    2
    23    14    16   am
    24    16    17    1
    25    16    18    1
    26     6     7   ar
    27    25    26   ar
    28    26    27   ar
    29    27    28   ar
    30    28    29   ar
    31    29    21   ar
    32    29    24   ar
    33     7     1   ar
    34    13     8   ar
    35    18    10    1
@<TRIPOS>MOLECULE
*****
 31 35 0 0 0
SMALL
GASTEIGER

@<TRIPOS>ATOM
      1 C         140.4270  140.8046  161.5118 C.ar    1  UNL1        0.0033
      2 C         139.3056  141.6231  160.9440 C.ar    1  UNL1        0.0024
      3 C         138.2829  142.2304  161.8580 C.ar    1  UNL1        0.0296
      4 C         138.3817  142.0192  163.3398 C.ar    1  UNL1        0.1402
      5 F         137.3591  142.6264  164.2538 F       1  UNL1       -0.2042
      6 C         139.5033  141.2007  163.9075 C.ar    1  UNL1        0.0304
      7 C         140.5259  140.5934  162.9935 C.ar    1  UNL1        0.0024
      8 C         139.6022  140.9895  165.3893 C.ar    1  UNL1        0.0359
      9 C         140.3712  141.9603  166.2356 C.ar    1  UNL1        0.0006
     10 C         140.4701  141.7491  167.7174 C.ar    1  UNL1        0.0023
     11 C         139.7999  140.5671  168.3528 C.ar    1  UNL1        0.0542
     12 C         139.0309  139.5963  167.5065 C.ar    1  UNL1        0.0411
     13 C         138.9320  139.8075  166.0248 C.ar    1  UNL1        0.1388
     14 C         140.0694  140.6189  169.8275 C.2     1  UNL1        0.2492
     15 O         139.5868  139.6303  170.8472 O.2     1  UNL1       -0.2699
     16 N         140.9060  141.8329  170.1034 N.am    1  UNL1       -0.2702
     17 C         141.4071  142.2715  171.4476 C.3     1  UNL1        0.1155
     18 C         141.1537  142.5314  168.7993 C.3     1  UNL1        0.1206
     19 O         138.1630  138.8367  165.1785 O.3     1  UNL1       -0.4714
     20 C         138.8522  137.6371  164.5989 C.3     1  UNL1        0.2525
     21 N         144.1243  141.5911  158.2111 N.ar    1  UNL1       -0.2931
     22 C         143.5637  142.8886  158.7133 C.ar    1  UNL1        0.1797
     23 N         142.4696  142.5737  159.6900 N.ar    1  UNL1       -0.2222
     24 C         142.3541  141.0815  159.7913 C.ar    1  UNL1        0.1203
     25 C         141.4497  140.1973  160.5977 C.ar    1  UNL1        0.0417
     26 C         141.5680  138.7059  160.4902 C.ar    1  UNL1        0.1238
     27 N         142.5907  138.0986  159.5762 N.ar    1  UNL1       -0.1449
     28 N         143.4950  138.9828  158.7698 N.ar    1  UNL1       -0.1285
     29 C         143.3767  140.4743  158.8773 C.ar    1  UNL1        0.1843
     30 C         146.3500  142.4422  157.1759 C.3     1  UNL1        0.0266
     31 C         145.2371  141.4374  157.2171 C.3     1  UNL1        0.1091
@<TRIPOS>BOND
     1    30    31    1
     2    31    21    1
     3    21    22   ar
     4    22    23   ar
     5    23    24   ar
     6    24    25   ar
     7    25     1    1
     8     1     2   ar
     9     2     3   ar
    10     3     4   ar
    11     4     5    1
    12     4     6   ar
    13     6     8    1
    14     8     9   ar
    15     9    10   ar
    16    10    11   ar
    17    11    12   ar
    18    12    13   ar
    19    13    19    1
    20    19    20    1
    21    11    14    1
    22    14    15    2
    23    14    16   am
    24    16    17    1
    25    16    18    1
    26     6     7   ar
    27    25    26   ar
    28    26    27   ar
    29    27    28   ar
    30    28    29   ar
    31    29    21   ar
    32    29    24   ar
    33     7     1   ar
    34    13     8   ar
    35    18    10    1
@<TRIPOS>MOLECULE
*****
 31 35 0 0 0
SMALL
GASTEIGER

@<TRIPOS>ATOM
      1 C         140.1765  138.9501  164.4719 C.ar    1  UNL1        0.0033
      2 C         140.5921  137.5884  163.9995 C.ar    1  UNL1        0.0024
      3 C         141.1898  137.4184  162.6342 C.ar    1  UNL1        0.0296
      4 C         141.3719  138.6099  161.7414 C.ar    1  UNL1        0.1402
      5 F         141.9696  138.4399  160.3762 F       1  UNL1       -0.2042
      6 C         140.9563  139.9716  162.2140 C.ar    1  UNL1        0.0304
      7 C         140.3586  140.1416  163.5792 C.ar    1  UNL1        0.0024
      8 C         141.1384  141.1632  161.3212 C.ar    1  UNL1        0.0359
      9 C         140.1094  141.4825  160.2775 C.ar    1  UNL1        0.0006
     10 C         140.2915  142.6741  159.3847 C.ar    1  UNL1        0.0023
     11 C         141.5026  143.5463  159.5358 C.ar    1  UNL1        0.0542
     12 C         142.5314  143.2270  160.5795 C.ar    1  UNL1        0.0411
     13 C         142.3493  142.0354  161.4722 C.ar    1  UNL1        0.1388
     14 C         141.4118  144.6455  158.5191 C.2     1  UNL1        0.2492
     15 O         142.4124  145.7446  158.3173 O.2     1  UNL1       -0.2699
     16 N         140.1447  144.4526  157.7398 N.am    1  UNL1       -0.2702
     17 C         139.6558  145.3250  156.6217 C.3     1  UNL1        0.1155
     18 C         139.4524  143.2343  158.2748 C.3     1  UNL1        0.1206
     19 O         143.3782  141.7160  162.5160 O.3     1  UNL1       -0.4714
     20 C         144.5760  140.8866  162.1593 C.3     1  UNL1        0.2525
     21 N         140.5633  141.0623  169.0075 N.ar    1  UNL1       -0.2931
     22 C         141.7150  141.4533  168.1297 C.ar    1  UNL1        0.1797
     23 N         141.5304  140.7870  166.7985 N.ar    1  UNL1       -0.2222
     24 C         140.2645  139.9841  166.8537 C.ar    1  UNL1        0.1203
     25 C         139.5788  139.1201  165.8372 C.ar    1  UNL1        0.0417
     26 C         138.2955  138.4262  166.1859 C.ar    1  UNL1        0.1238
     27 N         137.6979  138.5963  167.5511 N.ar    1  UNL1       -0.1449
     28 N         138.3836  139.4603  168.5676 N.ar    1  UNL1       -0.1285
     29 C         139.6668  140.1543  168.2190 C.ar    1  UNL1        0.1843
     30 C         139.7100  142.8303  170.7092 C.3     1  UNL1        0.0266
     31 C         140.3462  141.5020  170.4251 C.3     1  UNL1        0.1091
@<TRIPOS>BOND
     1    30    31    1
     2    31    21    1
     3    21    22   ar
     4    22    23   ar
     5    23    24   ar
     6    24    25   ar
     7    25     1    1
     8     1     2   ar
     9     2     3   ar
    10     3     4   ar
    11     4     5    1
    12     4     6   ar
    13     6     8    1
    14     8     9   ar
    15     9    10   ar
    16    10    11   ar
    17    11    12   ar
    18    12    13   ar
    19    13    19    1
    20    19    20    1
    21    11    14    1
    22    14    15    2
    23    14    16   am
    24    16    17    1
    25    16    18    1
    26     6     7   ar
    27    25    26   ar
    28    26    27   ar
    29    27    28   ar
    30    28    29   ar
    31    29    21   ar
    32    29    24   ar
    33     7     1   ar
    34    13     8   ar
    35    18    10    1
@<TRIPOS>MOLECULE
*****
 31 35 0 0 0
SMALL
GASTEIGER

@<TRIPOS>ATOM
      1 C         142.2443  140.1692  161.5817 C.ar    1  UNL1        0.0033
      2 C         142.3977  138.7609  161.0889 C.ar    1  UNL1        0.0024
      3 C         142.0567  137.6101  161.9887 C.ar    1  UNL1        0.0296
      4 C         141.5624  137.8678  163.3813 C.ar    1  UNL1        0.1402
      5 F         141.2214  136.7172  164.2811 F       1  UNL1       -0.2042
      6 C         141.4091  139.2763  163.8741 C.ar    1  UNL1        0.0304
      7 C         141.7500  140.4270  162.9743 C.ar    1  UNL1        0.0024
      8 C         140.9148  139.5341  165.2666 C.ar    1  UNL1        0.0359
      9 C         141.8785  139.9430  166.3409 C.ar    1  UNL1        0.0006
     10 C         141.3842  140.2008  167.7335 C.ar    1  UNL1        0.0023
     11 C         139.9262  140.0495  168.0518 C.ar    1  UNL1        0.0542
     12 C         138.9625  139.6406  166.9775 C.ar    1  UNL1        0.0411
     13 C         139.4568  139.3828  165.5850 C.ar    1  UNL1        0.1388
     14 C         139.7334  140.3689  169.5046 C.2     1  UNL1        0.2492
     15 O         138.4305  140.3440  170.2475 O.2     1  UNL1       -0.2699
     16 N         141.0723  140.7175  170.0843 N.am    1  UNL1       -0.2702
     17 C         141.3432  141.1024  171.5085 C.3     1  UNL1        0.1155
     18 C         142.0925  140.6136  168.9896 C.3     1  UNL1        0.1206
     19 O         138.4930  138.9739  164.5107 O.3     1  UNL1       -0.4714
     20 C         137.9987  139.9870  163.5212 C.3     1  UNL1        0.2525
     21 N         140.5983  144.2063  159.0967 N.ar    1  UNL1       -0.2931
     22 C         139.4802  143.5356  159.8384 C.ar    1  UNL1        0.1797
     23 N         140.0466  142.3444  160.5526 N.ar    1  UNL1       -0.2222
     24 C         141.5148  142.2789  160.2523 C.ar    1  UNL1        0.1203
     25 C         142.5853  141.3200  160.6819 C.ar    1  UNL1        0.0417
     26 C         143.9968  141.5118  160.2118 C.ar    1  UNL1        0.1238
     27 N         144.3377  142.6625  159.3121 N.ar    1  UNL1       -0.1449
     28 N         143.2672  143.6214  158.8824 N.ar    1  UNL1       -0.1285
     29 C         141.8558  143.4296  159.3525 C.ar    1  UNL1        0.1843
     30 C         140.1307  145.3158  156.7945 C.3     1  UNL1        0.0266
     31 C         140.4798  145.4375  158.2482 C.3     1  UNL1        0.1091
@<TRIPOS>BOND
     1    30    31    1
     2    31    21    1
     3    21    22   ar
     4    22    23   ar
     5    23    24   ar
     6    24    25   ar
     7    25     1    1
     8     1     2   ar
     9     2     3   ar
    10     3     4   ar
    11     4     5    1
    12     4     6   ar
    13     6     8    1
    14     8     9   ar
    15     9    10   ar
    16    10    11   ar
    17    11    12   ar
    18    12    13   ar
    19    13    19    1
    20    19    20    1
    21    11    14    1
    22    14    15    2
    23    14    16   am
    24    16    17    1
    25    16    18    1
    26     6     7   ar
    27    25    26   ar
    28    26    27   ar
    29    27    28   ar
    30    28    29   ar
    31    29    21   ar
    32    29    24   ar
    33     7     1   ar
    34    13     8   ar
    35    18    10    1
@<TRIPOS>MOLECULE
*****
 31 35 0 0 0
SMALL
GASTEIGER

@<TRIPOS>ATOM
      1 C         142.5802  142.6098  161.4336 C.ar    1  UNL1        0.0033
      2 C         143.9878  142.7495  160.9346 C.ar    1  UNL1        0.0024
      3 C         145.1384  142.3738  161.8206 C.ar    1  UNL1        0.0296
      4 C         144.8813  141.8583  163.2056 C.ar    1  UNL1        0.1402
      5 F         146.0318  141.4826  164.0917 F       1  UNL1       -0.2042
      6 C         143.4736  141.7186  163.7046 C.ar    1  UNL1        0.0304
      7 C         142.3231  142.0944  162.8186 C.ar    1  UNL1        0.0024
      8 C         143.2165  141.2032  165.0896 C.ar    1  UNL1        0.0359
      9 C         142.9019  142.1614  166.2001 C.ar    1  UNL1        0.0006
     10 C         142.6448  141.6460  167.5851 C.ar    1  UNL1        0.0023
     11 C         142.7023  140.1724  167.8596 C.ar    1  UNL1        0.0542
     12 C         143.0168  139.2143  166.7492 C.ar    1  UNL1        0.0411
     13 C         143.2739  139.7297  165.3642 C.ar    1  UNL1        0.1388
     14 C         142.4061  139.9601  169.3147 C.2     1  UNL1        0.2492
     15 O         142.3588  138.6377  170.0210 O.2     1  UNL1       -0.2699
     16 N         142.1656  141.3025  169.9394 N.am    1  UNL1       -0.2702
     17 C         141.8356  141.5581  171.3802 C.3     1  UNL1        0.1155
     18 C         142.3132  142.3444  168.8704 C.3     1  UNL1        0.1206
     19 O         143.5885  138.7715  164.2537 O.3     1  UNL1       -0.4714
     20 C         142.4823  138.2158  163.4068 C.3     1  UNL1        0.2525
     21 N         138.8446  141.0270  158.4802 N.ar    1  UNL1       -0.2931
     22 C         139.6125  139.8697  159.0468 C.ar    1  UNL1        0.1797
     23 N         140.7062  140.4191  159.9138 N.ar    1  UNL1       -0.2222
     24 C         140.6143  141.9160  159.8831 C.ar    1  UNL1        0.1203
     25 C         141.4296  142.9855  160.5475 C.ar    1  UNL1        0.0417
     26 C         141.0944  144.4307  160.3259 C.ar    1  UNL1        0.1238
     27 N         139.9438  144.8063  159.4399 N.ar    1  UNL1       -0.1449
     28 N         139.1285  143.7368  158.7755 N.ar    1  UNL1       -0.1285
     29 C         139.4637  142.2917  158.9971 C.ar    1  UNL1        0.1843
     30 C         137.8531  140.4804  156.1418 C.3     1  UNL1        0.0266
     31 C         137.6646  140.9357  157.5586 C.3     1  UNL1        0.1091
@<TRIPOS>BOND
     1    30    31    1
     2    31    21    1
     3    21    22   ar
     4    22    23   ar
     5    23    24   ar
     6    24    25   ar
     7    25     1    1
     8     1     2   ar
     9     2     3   ar
    10     3     4   ar
    11     4     5    1
    12     4     6   ar
    13     6     8    1
    14     8     9   ar
    15     9    10   ar
    16    10    11   ar
    17    11    12   ar
    18    12    13   ar
    19    13    19    1
    20    19    20    1
    21    11    14    1
    22    14    15    2
    23    14    16   am
    24    16    17    1
    25    16    18    1
    26     6     7   ar
    27    25    26   ar
    28    26    27   ar
    29    27    28   ar
    30    28    29   ar
    31    29    21   ar
    32    29    24   ar
    33     7     1   ar
    34    13     8   ar
    35    18    10    1
@<TRIPOS>MOLECULE
*****
 31 35 0 0 0
SMALL
GASTEIGER

@<TRIPOS>ATOM
      1 C         140.4612  142.4303  161.0818 C.ar    1  UNL1        0.0033
      2 C         140.5183  143.8338  160.5557 C.ar    1  UNL1        0.0024
      3 C         140.9913  144.9482  161.4414 C.ar    1  UNL1        0.0296
      4 C         141.4073  144.6590  162.8532 C.ar    1  UNL1        0.1402
      5 F         141.8804  145.7732  163.7390 F       1  UNL1       -0.2042
      6 C         141.3503  143.2554  163.3793 C.ar    1  UNL1        0.0304
      7 C         140.8772  142.1411  162.4936 C.ar    1  UNL1        0.0024
      8 C         141.7663  142.9661  164.7912 C.ar    1  UNL1        0.0359
      9 C         140.7270  142.7020  165.8401 C.ar    1  UNL1        0.0006
     10 C         141.1430  142.4128  167.2520 C.ar    1  UNL1        0.0023
     11 C         142.5983  142.3877  167.6148 C.ar    1  UNL1        0.0542
     12 C         143.6374  142.6517  166.5659 C.ar    1  UNL1        0.0411
     13 C         143.2214  142.9410  165.1541 C.ar    1  UNL1        0.1388
     14 C         142.7057  142.0761  169.0782 C.2     1  UNL1        0.2492
     15 O         143.9785  141.9534  169.8623 O.2     1  UNL1       -0.2699
     16 N         141.3169  141.9086  169.6197 N.am    1  UNL1       -0.2702
     17 C         140.9571  141.5891  171.0405 C.3     1  UNL1        0.1155
     18 C         140.3511  142.1167  168.4910 C.3     1  UNL1        0.1206
     19 O         144.2607  143.2051  164.1051 O.3     1  UNL1       -0.4714
     20 C         144.9628  142.0588  163.4396 C.3     1  UNL1        0.2525
     21 N         141.7190  138.6257  158.0609 N.ar    1  UNL1       -0.2931
     22 C         142.9384  139.3091  158.6051 C.ar    1  UNL1        0.1797
     23 N         142.4844  140.4288  159.4940 N.ar    1  UNL1       -0.2222
     24 C         140.9844  140.4374  159.4992 C.ar    1  UNL1        0.1203
     25 C         139.9881  141.3159  160.1960 C.ar    1  UNL1        0.0417
     26 C         138.5189  141.0802  160.0072 C.ar    1  UNL1        0.1238
     27 N         138.0459  139.9659  159.1215 N.ar    1  UNL1       -0.1449
     28 N         139.0421  139.0873  158.4246 N.ar    1  UNL1       -0.1285
     29 C         140.5114  139.3230  158.6135 C.ar    1  UNL1        0.1843
     30 C         142.8394  136.4655  157.1508 C.3     1  UNL1        0.0266
     31 C         141.7090  137.4513  157.1279 C.3     1  UNL1        0.1091
@<TRIPOS>BOND
     1    30    31    1
     2    31    21    1
     3    21    22   ar
     4    22    23   ar
     5    23    24   ar
     6    24    25   ar
     7    25     1    1
     8     1     2   ar
     9     2     3   ar
    10     3     4   ar
    11     4     5    1
    12     4     6   ar
    13     6     8    1
    14     8     9   ar
    15     9    10   ar
    16    10    11   ar
    17    11    12   ar
    18    12    13   ar
    19    13    19    1
    20    19    20    1
    21    11    14    1
    22    14    15    2
    23    14    16   am
    24    16    17    1
    25    16    18    1
    26     6     7   ar
    27    25    26   ar
    28    26    27   ar
    29    27    28   ar
    30    28    29   ar
    31    29    21   ar
    32    29    24   ar
    33     7     1   ar
    34    13     8   ar
    35    18    10    1
@<TRIPOS>MOLECULE
*****
 31 35 0 0 0
SMALL
GASTEIGER

@<TRIPOS>ATOM
      1 C         139.4793  140.1917  161.6681 C.ar    1  UNL1        0.0033
      2 C         138.6523  138.9696  161.3991 C.ar    1  UNL1        0.0024
      3 C         138.4548  137.9453  162.4770 C.ar    1  UNL1        0.0296
      4 C         139.0844  138.1432  163.8241 C.ar    1  UNL1        0.1402
      5 F         138.8870  137.1191  164.9020 F       1  UNL1       -0.2042
      6 C         139.9115  139.3654  164.0931 C.ar    1  UNL1        0.0304
      7 C         140.1089  140.3896  163.0152 C.ar    1  UNL1        0.0024
      8 C         140.5410  139.5634  165.4401 C.ar    1  UNL1        0.0359
      9 C         139.8065  140.3191  166.5076 C.ar    1  UNL1        0.0006
     10 C         140.4361  140.5171  167.8546 C.ar    1  UNL1        0.0023
     11 C         141.8002  139.9592  168.1341 C.ar    1  UNL1        0.0542
     12 C         142.5347  139.2035  167.0667 C.ar    1  UNL1        0.0411
     13 C         141.9051  139.0056  165.7197 C.ar    1  UNL1        0.1388
     14 C         142.1641  140.3105  169.5463 C.2     1  UNL1        0.2492
     15 O         143.4427  139.9502  170.2429 O.2     1  UNL1       -0.2699
     16 N         141.0249  141.0854  170.1395 N.am    1  UNL1       -0.2702
     17 C         140.9644  141.6360  171.5335 C.3     1  UNL1        0.1155
     18 C         139.9570  141.2131  169.0939 C.3     1  UNL1        0.1206
     19 O         142.6396  138.2499  164.6523 O.3     1  UNL1       -0.4714
     20 C         143.5870  138.9708  163.7398 C.3     1  UNL1        0.2525
     21 N         142.6215  142.2633  158.3489 N.ar    1  UNL1       -0.2931
     22 C         143.2988  141.1741  159.1267 C.ar    1  UNL1        0.1797
     23 N         142.3020  140.6060  160.0930 N.ar    1  UNL1       -0.2222
     24 C         141.0087  141.3442  159.9123 C.ar    1  UNL1        0.1203
     25 C         139.6767  141.2160  160.5902 C.ar    1  UNL1        0.0417
     26 C         138.5423  142.1120  160.1901 C.ar    1  UNL1        0.1238
     27 N         138.7398  143.1362  159.1121 N.ar    1  UNL1       -0.1449
     28 N         140.0717  143.2644  158.4343 N.ar    1  UNL1       -0.1285
     29 C         141.2062  142.3684  158.8344 C.ar    1  UNL1        0.1843
     30 C         142.7307  143.0286  155.8685 C.3     1  UNL1        0.0266
     31 C         143.2494  143.1004  157.2741 C.3     1  UNL1        0.1091
@<TRIPOS>BOND
     1    30    31    1
     2    31    21    1
     3    21    22   ar
     4    22    23   ar
     5    23    24   ar
     6    24    25   ar
     7    25     1    1
     8     1     2   ar
     9     2     3   ar
    10     3     4   ar
    11     4     5    1
    12     4     6   ar
    13     6     8    1
    14     8     9   ar
    15     9    10   ar
    16    10    11   ar
    17    11    12   ar
    18    12    13   ar
    19    13    19    1
    20    19    20    1
    21    11    14    1
    22    14    15    2
    23    14    16   am
    24    16    17    1
    25    16    18    1
    26     6     7   ar
    27    25    26   ar
    28    26    27   ar
    29    27    28   ar
    30    28    29   ar
    31    29    21   ar
    32    29    24   ar
    33     7     1   ar
    34    13     8   ar
    35    18    10    1
@<TRIPOS>MOLECULE
*****
 31 35 0 0 0
SMALL
GASTEIGER

@<TRIPOS>ATOM
      1 C         139.9834  138.7092  164.4930 C.ar    1  UNL1        0.0033
      2 C         140.8107  137.4885  164.2186 C.ar    1  UNL1        0.0024
      3 C         141.3506  137.2425  162.8409 C.ar    1  UNL1        0.0296
      4 C         141.0631  138.2172  161.7376 C.ar    1  UNL1        0.1402
      5 F         141.6029  137.9712  160.3599 F       1  UNL1       -0.2042
      6 C         140.2357  139.4380  162.0120 C.ar    1  UNL1        0.0304
      7 C         139.6959  139.6839  163.3897 C.ar    1  UNL1        0.0024
      8 C         139.9482  140.4127  160.9087 C.ar    1  UNL1        0.0359
      9 C         138.8371  140.1407  159.9383 C.ar    1  UNL1        0.0006
     10 C         138.5495  141.1154  158.8350 C.ar    1  UNL1        0.0023
     11 C         139.3731  142.3621  158.7021 C.ar    1  UNL1        0.0542
     12 C         140.4841  142.6340  159.6725 C.ar    1  UNL1        0.0411
     13 C         140.7717  141.6593  160.7758 C.ar    1  UNL1        0.1388
     14 C         138.8596  143.1332  157.5224 C.2     1  UNL1        0.2492
     15 O         139.3933  144.4442  157.0260 O.2     1  UNL1       -0.2699
     16 N         137.7187  142.3631  156.9262 N.am    1  UNL1       -0.2702
     17 C         136.9112  142.7689  155.7290 C.3     1  UNL1        0.1155
     18 C         137.5271  141.1161  157.7375 C.3     1  UNL1        0.1206
     19 O         141.8828  141.9313  161.7462 O.3     1  UNL1       -0.4714
     20 C         141.6800  142.9121  162.8628 C.3     1  UNL1        0.2525
     21 N         140.5992  141.0073  168.9114 N.ar    1  UNL1       -0.2931
     22 C         141.7256  141.3280  167.9742 C.ar    1  UNL1        0.1797
     23 N         141.4727  140.6092  166.6822 N.ar    1  UNL1       -0.2222
     24 C         140.1898  139.8441  166.8210 C.ar    1  UNL1        0.1203
     25 C         139.4435  138.9553  165.8707 C.ar    1  UNL1        0.0417
     26 C         138.1574  138.3125  166.2981 C.ar    1  UNL1        0.1238
     27 N         137.6176  138.5585  167.6758 N.ar    1  UNL1       -0.1449
     28 N         138.3639  139.4474  168.6260 N.ar    1  UNL1       -0.1285
     29 C         139.6500  140.0902  168.1986 C.ar    1  UNL1        0.1843
     30 C         139.7480  142.8161  170.5708 C.3     1  UNL1        0.0266
     31 C         140.4483  141.5145  170.3149 C.3     1  UNL1        0.1091
@<TRIPOS>BOND
     1    30    31    1
     2    31    21    1
     3    21    22   ar
     4    22    23   ar
     5    23    24   ar
     6    24    25   ar
     7    25     1    1
     8     1     2   ar
     9     2     3   ar
    10     3     4   ar
    11     4     5    1
    12     4     6   ar
    13     6     8    1
    14     8     9   ar
    15     9    10   ar
    16    10    11   ar
    17    11    12   ar
    18    12    13   ar
    19    13    19    1
    20    19    20    1
    21    11    14    1
    22    14    15    2
    23    14    16   am
    24    16    17    1
    25    16    18    1
    26     6     7   ar
    27    25    26   ar
    28    26    27   ar
    29    27    28   ar
    30    28    29   ar
    31    29    21   ar
    32    29    24   ar
    33     7     1   ar
    34    13     8   ar
    35    18    10    1
@<TRIPOS>MOLECULE
*****
 31 35 0 0 0
SMALL
GASTEIGER

@<TRIPOS>ATOM
      1 C         142.3757  142.4692  161.1555 C.ar    1  UNL1        0.0033
      2 C         143.7674  142.6602  160.6294 C.ar    1  UNL1        0.0024
      3 C         144.9480  142.3563  161.5035 C.ar    1  UNL1        0.0296
      4 C         144.7368  141.8614  162.9037 C.ar    1  UNL1        0.1402
      5 F         145.9172  141.5575  163.7778 F       1  UNL1       -0.2042
      6 C         143.3450  141.6703  163.4297 C.ar    1  UNL1        0.0304
      7 C         142.1646  141.9742  162.5556 C.ar    1  UNL1        0.0024
      8 C         143.1338  141.1753  164.8299 C.ar    1  UNL1        0.0359
      9 C         142.8308  142.1475  165.9313 C.ar    1  UNL1        0.0006
     10 C         142.6197  141.6526  167.3315 C.ar    1  UNL1        0.0023
     11 C         142.7115  140.1854  167.6302 C.ar    1  UNL1        0.0542
     12 C         143.0144  139.2133  166.5287 C.ar    1  UNL1        0.0411
     13 C         143.2256  139.7083  165.1286 C.ar    1  UNL1        0.1388
     14 C         142.4575  139.9941  169.0961 C.2     1  UNL1        0.2492
     15 O         142.4531  138.6840  169.8264 O.2     1  UNL1       -0.2699
     16 N         142.2087  141.3429  169.7033 N.am    1  UNL1       -0.2702
     17 C         141.9119  141.6184  171.1477 C.3     1  UNL1        0.1155
     18 C         142.3090  142.3679  168.6128 C.3     1  UNL1        0.1206
     19 O         143.5286  138.7361  164.0271 O.3     1  UNL1       -0.4714
     20 C         142.4095  138.1265  163.2360 C.3     1  UNL1        0.2525
     21 N         140.4480  145.3571  157.5325 N.ar    1  UNL1       -0.2931
     22 C         141.8521  145.7693  157.8620 C.ar    1  UNL1        0.1797
     23 N         142.3581  144.8654  158.9468 N.ar    1  UNL1       -0.2222
     24 C         141.2666  143.8946  159.2878 C.ar    1  UNL1        0.1203
     25 C         141.1952  142.7730  160.2813 C.ar    1  UNL1        0.0417
     26 C         139.9433  141.9554  160.4008 C.ar    1  UNL1        0.1238
     27 N         138.7629  142.2593  159.5267 N.ar    1  UNL1       -0.1449
     28 N         138.8343  143.3809  158.5331 N.ar    1  UNL1       -0.1285
     29 C         140.0861  144.1985  158.4137 C.ar    1  UNL1        0.1843
     30 C         139.2042  145.2408  155.2544 C.3     1  UNL1        0.0266
     31 C         139.5613  145.9921  156.5026 C.3     1  UNL1        0.1091
@<TRIPOS>BOND
     1    30    31    1
     2    31    21    1
     3    21    22   ar
     4    22    23   ar
     5    23    24   ar
     6    24    25   ar
     7    25     1    1
     8     1     2   ar
     9     2     3   ar
    10     3     4   ar
    11     4     5    1
    12     4     6   ar
    13     6     8    1
    14     8     9   ar
    15     9    10   ar
    16    10    11   ar
    17    11    12   ar
    18    12    13   ar
    19    13    19    1
    20    19    20    1
    21    11    14    1
    22    14    15    2
    23    14    16   am
    24    16    17    1
    25    16    18    1
    26     6     7   ar
    27    25    26   ar
    28    26    27   ar
    29    27    28   ar
    30    28    29   ar
    31    29    21   ar
    32    29    24   ar
    33     7     1   ar
    34    13     8   ar
    35    18    10    1
