@<TRIPOS>MOLECULE
*****
 25 28 0 0 0
SMALL
GASTEIGER

@<TRIPOS>ATOM
      1 C         139.0199  139.5118  163.5601 C.3     1  UNL1        0.0939
      2 C         137.7086  139.8387  161.3412 C.3     1  UNL1        0.0897
      3 N         138.1123  140.3374  162.6971 N.3     1  UNL1       -0.2701
      4 C         137.6086  141.6615  163.1900 C.3     1  UNL1        0.0721
      5 C         138.3782  142.9143  162.8933 C.3     1  UNL1        0.0147
      6 C         139.0503  143.2496  161.5949 C.3     1  UNL1        0.0013
      7 C         139.6984  144.5943  161.7422 C.3     1  UNL1        0.0000
      8 C         139.4267  145.0902  163.1316 C.3     1  UNL1        0.0000
      9 C         138.7546  144.7549  164.4300 C.3     1  UNL1        0.0000
     10 C         138.1066  143.4101  164.2827 C.3     1  UNL1        0.0013
     11 C         138.6108  144.0519  163.8430 C.3     1  UNL1        0.0013
     12 C         138.4770  144.7577  165.1598 C.3     1  UNL1        0.0000
     13 C         137.8685  143.4951  165.0216 C.3     1  UNL1        0.0000
     14 C         138.7025  139.3194  165.0136 C.3     1  UNL1        0.1123
     15 N         139.4274  140.1228  166.0523 N.am    1  UNL1       -0.2609
     16 C         140.4890  141.1495  165.7905 C.3     1  UNL1        0.1165
     17 C         140.9356  141.7017  167.1117 C.3     1  UNL1        0.1166
     18 N         140.1500  141.0162  168.1901 N.am    1  UNL1       -0.2587
     19 C         139.2178  140.0404  167.5353 C.2     1  UNL1        0.3074
     20 O         138.2467  139.1402  168.2399 O.2     1  UNL1       -0.2523
     21 C         140.2747  141.2633  169.6643 C.3     1  UNL1        0.1426
     22 C         140.6447  140.2441  170.7009 C.3     1  UNL1        0.2044
     23 O         140.6499  140.9238  172.0381 O.3     1  UNL1       -0.2185
     24 O         140.2831  142.3630  171.8279 O.3     1  UNL1       -0.2185
     25 C         140.0512  142.5728  170.3609 C.3     1  UNL1        0.2044
@<TRIPOS>BOND
     1     2     3    1
     2     3     1    1
     3     1    14    1
     4    14    15    1
     5    15    16    1
     6    16    17    1
     7    17    18    1
     8    18    21    1
     9    21    22    1
    10    22    23    1
    11    23    24    1
    12    24    25    1
    13    18    19   am
    14    19    20    2
    15     3     4    1
    16     5     4    1
    17     5     6    1
    18     6     7    1
    19     8     7    1
    20     8     9    1
    21     9    10    1
    22     8    11    1
    23    11    12    1
    24    11    13    1
    25    19    15   am
    26    10     5    1
    27    25    21    1
    28    11     5    1
@<TRIPOS>MOLECULE
*****
 25 28 0 0 0
SMALL
GASTEIGER

@<TRIPOS>ATOM
      1 C         140.0373  143.0154  164.1211 C.3     1  UNL1        0.0939
      2 C         137.9464  143.2377  162.5952 C.3     1  UNL1        0.0897
      3 N         138.6731  142.5462  163.7105 N.3     1  UNL1       -0.2701
      4 C         138.0356  141.3855  164.4151 C.3     1  UNL1        0.0721
      5 C         138.4220  139.9827  164.0506 C.3     1  UNL1        0.0147
      6 C         138.7939  139.4984  162.6805 C.3     1  UNL1        0.0013
      7 C         139.1061  138.0343  162.7753 C.3     1  UNL1        0.0000
      8 C         138.9272  137.6138  164.2040 C.3     1  UNL1        0.0000
      9 C         138.5553  138.0981  165.5741 C.3     1  UNL1        0.0000
     10 C         138.2431  139.5622  165.4793 C.3     1  UNL1        0.0013
     11 C         138.5044  138.8180  164.9922 C.3     1  UNL1        0.0013
     12 C         138.3953  138.1603  166.3359 C.3     1  UNL1        0.0000
     13 C         138.1022  139.5349  166.2469 C.3     1  UNL1        0.0000
     14 C         141.1335  142.0192  164.3578 C.3     1  UNL1        0.1123
     15 N         141.2869  141.3786  165.7054 N.am    1  UNL1       -0.2609
     16 C         141.9056  140.0401  165.9801 C.3     1  UNL1        0.1165
     17 C         141.8496  139.7984  167.4594 C.3     1  UNL1        0.1166
     18 N         141.1963  140.9876  168.0990 N.am    1  UNL1       -0.2587
     19 C         140.8485  141.9642  167.0149 C.2     1  UNL1        0.3074
     20 O         140.1798  143.2931  167.2067 O.2     1  UNL1       -0.2523
     21 C         140.9364  141.1684  169.5652 C.3     1  UNL1        0.1426
     22 C         141.0265  142.4592  170.3241 C.3     1  UNL1        0.2044
     23 O         140.6866  142.1786  171.7578 O.3     1  UNL1       -0.2185
     24 O         140.3863  140.7145  171.8851 O.3     1  UNL1       -0.2185
     25 C         140.5407  140.0902  170.5300 C.3     1  UNL1        0.2044
@<TRIPOS>BOND
     1     2     3    1
     2     3     1    1
     3     1    14    1
     4    14    15    1
     5    15    16    1
     6    16    17    1
     7    17    18    1
     8    18    21    1
     9    21    22    1
    10    22    23    1
    11    23    24    1
    12    24    25    1
    13    18    19   am
    14    19    20    2
    15     3     4    1
    16     5     4    1
    17     5     6    1
    18     6     7    1
    19     8     7    1
    20     8     9    1
    21     9    10    1
    22     8    11    1
    23    11    12    1
    24    11    13    1
    25    19    15   am
    26    10     5    1
    27    25    21    1
    28    11     5    1
@<TRIPOS>MOLECULE
*****
 25 28 0 0 0
SMALL
GASTEIGER

@<TRIPOS>ATOM
      1 C         139.0064  138.0599  164.8217 C.3     1  UNL1        0.0939
      2 C         138.7033  138.0214  162.2417 C.3     1  UNL1        0.0897
      3 N         139.5454  137.7581  163.4548 N.3     1  UNL1       -0.2701
      4 C         140.9264  137.1931  163.3011 C.3     1  UNL1        0.0721
      5 C         142.1159  137.9857  163.7558 C.3     1  UNL1        0.0147
      6 C         142.3924  138.4335  165.1605 C.3     1  UNL1        0.0013
      7 C         143.6852  139.1942  165.1585 C.3     1  UNL1        0.0000
      8 C         144.2077  139.2166  163.7526 C.3     1  UNL1        0.0000
      9 C         143.9313  138.7688  162.3479 C.3     1  UNL1        0.0000
     10 C         142.6384  138.0080  162.3499 C.3     1  UNL1        0.0013
     11 C         143.2379  138.4697  162.8857 C.3     1  UNL1        0.0013
     12 C         143.9590  138.6293  161.5801 C.3     1  UNL1        0.0000
     13 C         142.7452  137.9151  161.5820 C.3     1  UNL1        0.0000
     14 C         138.5064  139.4370  165.1437 C.3     1  UNL1        0.1123
     15 N         139.2146  140.2713  166.1695 N.am    1  UNL1       -0.2609
     16 C         140.1352  141.4215  165.8877 C.3     1  UNL1        0.1165
     17 C         140.6160  141.9629  167.2013 C.3     1  UNL1        0.1166
     18 N         139.9926  141.1474  168.2950 N.am    1  UNL1       -0.2587
     19 C         139.1264  140.1019  167.6573 C.2     1  UNL1        0.3074
     20 O         138.3146  139.0684  168.3804 O.2     1  UNL1       -0.2523
     21 C         140.1990  141.3429  169.7678 C.3     1  UNL1        0.1426
     22 C         140.6509  140.2952  170.7416 C.3     1  UNL1        0.2044
     23 O         140.7210  140.9254  172.1010 O.3     1  UNL1       -0.2185
     24 O         140.3125  142.3625  171.9674 O.3     1  UNL1       -0.2185
     25 C         139.9899  142.6205  170.5254 C.3     1  UNL1        0.2044
@<TRIPOS>BOND
     1     2     3    1
     2     3     1    1
     3     1    14    1
     4    14    15    1
     5    15    16    1
     6    16    17    1
     7    17    18    1
     8    18    21    1
     9    21    22    1
    10    22    23    1
    11    23    24    1
    12    24    25    1
    13    18    19   am
    14    19    20    2
    15     3     4    1
    16     5     4    1
    17     5     6    1
    18     6     7    1
    19     8     7    1
    20     8     9    1
    21     9    10    1
    22     8    11    1
    23    11    12    1
    24    11    13    1
    25    19    15   am
    26    10     5    1
    27    25    21    1
    28    11     5    1
@<TRIPOS>MOLECULE
*****
 25 28 0 0 0
SMALL
GASTEIGER

@<TRIPOS>ATOM
      1 C         143.2977  142.7938  164.5509 C.3     1  UNL1        0.0939
      2 C         143.2085  144.5389  162.6281 C.3     1  UNL1        0.0897
      3 N         142.5813  143.8972  163.8302 N.3     1  UNL1       -0.2701
      4 C         141.2377  144.3587  164.3116 C.3     1  UNL1        0.0721
      5 C         139.9885  143.7677  163.7285 C.3     1  UNL1        0.0147
      6 C         139.9127  142.8827  162.5198 C.3     1  UNL1        0.0013
      7 C         138.4730  142.5260  162.2960 C.3     1  UNL1        0.0000
      8 C         137.6590  143.1906  163.3664 C.3     1  UNL1        0.0000
      9 C         137.7347  144.0757  164.5750 C.3     1  UNL1        0.0000
     10 C         139.1745  144.4324  164.7989 C.3     1  UNL1        0.0013
     11 C         138.5956  143.9581  164.2517 C.3     1  UNL1        0.0013
     12 C         137.5771  144.5100  165.2045 C.3     1  UNL1        0.0000
     13 C         138.9288  144.8449  165.4147 C.3     1  UNL1        0.0000
     14 C         142.6252  141.4680  164.7509 C.3     1  UNL1        0.1123
     15 N         141.6954  141.2659  165.9104 N.am    1  UNL1       -0.2609
     16 C         140.3006  140.7192  165.8372 C.3     1  UNL1        0.1165
     17 C         139.7403  140.6905  167.2283 C.3     1  UNL1        0.1166
     18 N         140.7889  141.2196  168.1613 N.am    1  UNL1       -0.2587
     19 C         141.9972  141.5752  167.3468 C.2     1  UNL1        0.3074
     20 O         143.2818  142.1408  167.8759 O.2     1  UNL1       -0.2523
     21 C         140.6530  141.3671  169.6479 C.3     1  UNL1        0.1426
     22 C         140.5719  140.2461  170.6414 C.3     1  UNL1        0.2044
     23 O         140.4431  140.8477  172.0094 O.3     1  UNL1       -0.2185
     24 O         140.4447  142.3404  171.8614 O.3     1  UNL1       -0.2185
     25 C         140.5744  142.6614  170.4019 C.3     1  UNL1        0.2044
@<TRIPOS>BOND
     1     2     3    1
     2     3     1    1
     3     1    14    1
     4    14    15    1
     5    15    16    1
     6    16    17    1
     7    17    18    1
     8    18    21    1
     9    21    22    1
    10    22    23    1
    11    23    24    1
    12    24    25    1
    13    18    19   am
    14    19    20    2
    15     3     4    1
    16     5     4    1
    17     5     6    1
    18     6     7    1
    19     8     7    1
    20     8     9    1
    21     9    10    1
    22     8    11    1
    23    11    12    1
    24    11    13    1
    25    19    15   am
    26    10     5    1
    27    25    21    1
    28    11     5    1
@<TRIPOS>MOLECULE
*****
 25 28 0 0 0
SMALL
GASTEIGER

@<TRIPOS>ATOM
      1 C         139.5229  142.3174  161.6798 C.3     1  UNL1        0.0939
      2 C         137.7906  143.6929  163.0424 C.3     1  UNL1        0.0897
      3 N         138.3135  142.3703  162.5654 N.3     1  UNL1       -0.2701
      4 C         137.6270  141.1008  162.9741 C.3     1  UNL1        0.0721
      5 C         138.2287  140.2320  164.0387 C.3     1  UNL1        0.0147
      6 C         138.4750  140.6274  165.4645 C.3     1  UNL1        0.0013
      7 C         139.0882  139.4550  166.1712 C.3     1  UNL1        0.0000
      8 C         139.2208  138.3351  165.1822 C.3     1  UNL1        0.0000
      9 C         138.9744  137.9396  163.7564 C.3     1  UNL1        0.0000
     10 C         138.3612  139.1121  163.0496 C.3     1  UNL1        0.0013
     11 C         138.6896  138.8153  163.8642 C.3     1  UNL1        0.0013
     12 C         138.9246  137.5615  163.0751 C.3     1  UNL1        0.0000
     13 C         138.3489  138.6622  162.4114 C.3     1  UNL1        0.0000
     14 C         140.8364  142.8497  162.1712 C.3     1  UNL1        0.1123
     15 N         141.3462  142.4552  163.5257 N.am    1  UNL1       -0.2609
     16 C         141.4534  143.3523  164.7230 C.3     1  UNL1        0.1165
     17 C         142.0117  142.5458  165.8578 C.3     1  UNL1        0.1166
     18 N         142.2495  141.1503  165.3619 N.am    1  UNL1       -0.2587
     19 C         141.8382  141.0943  163.9205 C.2     1  UNL1        0.3074
     20 O         141.9068  139.8890  163.0303 O.2     1  UNL1       -0.2523
     21 C         142.8017  140.0109  166.1661 C.3     1  UNL1        0.1426
     22 C         143.6741  138.9066  165.6470 C.3     1  UNL1        0.2044
     23 O         143.9900  137.9889  166.7908 O.3     1  UNL1       -0.2185
     24 O         143.3128  138.5261  168.0167 O.3     1  UNL1       -0.2185
     25 C         142.5783  139.7757  167.6307 C.3     1  UNL1        0.2044
@<TRIPOS>BOND
     1     2     3    1
     2     3     1    1
     3     1    14    1
     4    14    15    1
     5    15    16    1
     6    16    17    1
     7    17    18    1
     8    18    21    1
     9    21    22    1
    10    22    23    1
    11    23    24    1
    12    24    25    1
    13    18    19   am
    14    19    20    2
    15     3     4    1
    16     5     4    1
    17     5     6    1
    18     6     7    1
    19     8     7    1
    20     8     9    1
    21     9    10    1
    22     8    11    1
    23    11    12    1
    24    11    13    1
    25    19    15   am
    26    10     5    1
    27    25    21    1
    28    11     5    1
@<TRIPOS>MOLECULE
*****
 25 28 0 0 0
SMALL
GASTEIGER

@<TRIPOS>ATOM
      1 C         142.8170  138.4855  164.6210 C.3     1  UNL1        0.0939
      2 C         142.9679  138.0714  162.0606 C.3     1  UNL1        0.0897
      3 N         142.1945  138.5400  163.2574 N.3     1  UNL1       -0.2701
      4 C         140.7986  139.0631  163.0905 C.3     1  UNL1        0.0721
      5 C         139.7921  138.8776  164.1872 C.3     1  UNL1        0.0147
      6 C         139.5162  137.6005  164.9240 C.3     1  UNL1        0.0013
      7 C         138.4384  137.8704  165.9317 C.3     1  UNL1        0.0000
      8 C         138.0481  139.3142  165.8176 C.3     1  UNL1        0.0000
      9 C         138.3239  140.5913  165.0807 C.3     1  UNL1        0.0000
     10 C         139.4018  140.3215  164.0730 C.3     1  UNL1        0.0013
     11 C         138.8847  139.9367  164.7394 C.3     1  UNL1        0.0013
     12 C         138.3256  141.3264  164.8174 C.3     1  UNL1        0.0000
     13 C         139.3376  141.0731  163.8713 C.3     1  UNL1        0.0000
     14 C         143.4542  139.7119  165.2042 C.3     1  UNL1        0.1123
     15 N         142.7102  140.5365  166.2124 N.am    1  UNL1       -0.2609
     16 C         142.0488  141.8579  165.9551 C.3     1  UNL1        0.1165
     17 C         141.4268  142.3226  167.2386 C.3     1  UNL1        0.1166
     18 N         141.7039  141.2883  168.2890 N.am    1  UNL1       -0.2587
     19 C         142.4970  140.1844  167.6548 C.2     1  UNL1        0.3074
     20 O         142.9904  138.9459  168.3423 O.2     1  UNL1       -0.2523
     21 C         141.2648  141.3475  169.7221 C.3     1  UNL1        0.1426
     22 C         141.2994  142.5593  170.6055 C.3     1  UNL1        0.2044
     23 O         140.7700  142.1660  171.9528 O.3     1  UNL1       -0.2185
     24 O         140.4082  140.7112  171.9020 O.3     1  UNL1       -0.2185
     25 C         140.7140  140.2053  170.5234 C.3     1  UNL1        0.2044
@<TRIPOS>BOND
     1     2     3    1
     2     3     1    1
     3     1    14    1
     4    14    15    1
     5    15    16    1
     6    16    17    1
     7    17    18    1
     8    18    21    1
     9    21    22    1
    10    22    23    1
    11    23    24    1
    12    24    25    1
    13    18    19   am
    14    19    20    2
    15     3     4    1
    16     5     4    1
    17     5     6    1
    18     6     7    1
    19     8     7    1
    20     8     9    1
    21     9    10    1
    22     8    11    1
    23    11    12    1
    24    11    13    1
    25    19    15   am
    26    10     5    1
    27    25    21    1
    28    11     5    1
@<TRIPOS>MOLECULE
*****
 25 28 0 0 0
SMALL
GASTEIGER

@<TRIPOS>ATOM
      1 C         142.7836  141.0339  161.6432 C.3     1  UNL1        0.0939
      2 C         144.8470  142.5288  162.1506 C.3     1  UNL1        0.0897
      3 N         143.9738  141.3590  162.4961 N.3     1  UNL1       -0.2701
      4 C         144.2909  140.5145  163.6945 C.3     1  UNL1        0.0721
      5 C         143.7274  140.8757  165.0369 C.3     1  UNL1        0.0147
      6 C         143.5051  142.2658  165.5548 C.3     1  UNL1        0.0013
      7 C         142.9276  142.1593  166.9350 C.3     1  UNL1        0.0000
      8 C         142.7929  140.7035  167.2702 C.3     1  UNL1        0.0000
      9 C         143.0152  139.3134  166.7524 C.3     1  UNL1        0.0000
     10 C         143.5928  139.4197  165.3721 C.3     1  UNL1        0.0013
     11 C         143.2873  139.9101  166.0971 C.3     1  UNL1        0.0013
     12 C         143.0569  138.5391  166.6603 C.3     1  UNL1        0.0000
     13 C         143.5991  138.6389  165.3643 C.3     1  UNL1        0.0000
     14 C         141.3978  141.2453  162.1772 C.3     1  UNL1        0.1123
     15 N         140.8090  140.2623  163.1452 N.am    1  UNL1       -0.2609
     16 C         140.7759  138.7721  162.9779 C.3     1  UNL1        0.1165
     17 C         140.0963  138.1857  164.1797 C.3     1  UNL1        0.1166
     18 N         139.7093  139.3136  165.0897 N.am    1  UNL1       -0.2587
     19 C         140.1498  140.5970  164.4503 C.2     1  UNL1        0.3074
     20 O         139.9638  141.9734  165.0167 O.2     1  UNL1       -0.2523
     21 C         139.0055  139.1813  166.4077 C.3     1  UNL1        0.1426
     22 C         137.7937  138.3400  166.6795 C.3     1  UNL1        0.2044
     23 O         137.4292  138.5058  168.1251 O.3     1  UNL1       -0.2185
     24 O         138.4156  139.4495  168.7466 O.3     1  UNL1       -0.2185
     25 C         139.3898  139.8670  167.6852 C.3     1  UNL1        0.2044
@<TRIPOS>BOND
     1     2     3    1
     2     3     1    1
     3     1    14    1
     4    14    15    1
     5    15    16    1
     6    16    17    1
     7    17    18    1
     8    18    21    1
     9    21    22    1
    10    22    23    1
    11    23    24    1
    12    24    25    1
    13    18    19   am
    14    19    20    2
    15     3     4    1
    16     5     4    1
    17     5     6    1
    18     6     7    1
    19     8     7    1
    20     8     9    1
    21     9    10    1
    22     8    11    1
    23    11    12    1
    24    11    13    1
    25    19    15   am
    26    10     5    1
    27    25    21    1
    28    11     5    1
@<TRIPOS>MOLECULE
*****
 25 28 0 0 0
SMALL
GASTEIGER

@<TRIPOS>ATOM
      1 C         139.7474  142.5945  161.1912 C.3     1  UNL1        0.0939
      2 C         142.1326  143.3763  160.5206 C.3     1  UNL1        0.0897
      3 N         140.9513  143.4535  161.4419 N.3     1  UNL1       -0.2701
      4 C         140.9738  144.3897  162.6136 C.3     1  UNL1        0.0721
      5 C         140.8874  143.8466  164.0092 C.3     1  UNL1        0.0147
      6 C         141.9042  142.9704  164.6788 C.3     1  UNL1        0.0013
      7 C         141.4143  142.6667  166.0636 C.3     1  UNL1        0.0000
      8 C         140.0948  143.3553  166.2499 C.3     1  UNL1        0.0000
      9 C         139.0780  144.2316  165.5804 C.3     1  UNL1        0.0000
     10 C         139.5679  144.5353  164.1954 C.3     1  UNL1        0.0013
     11 C         139.7692  144.0846  164.9802 C.3     1  UNL1        0.0013
     12 C         138.4547  144.6684  165.4060 C.3     1  UNL1        0.0000
     13 C         138.9146  144.9535  164.1057 C.3     1  UNL1        0.0000
     14 C         139.8530  141.1027  161.3076 C.3     1  UNL1        0.1123
     15 N         140.0832  140.4693  162.6476 N.am    1  UNL1       -0.2609
     16 C         141.3191  139.7347  163.0750 C.3     1  UNL1        0.1165
     17 C         141.1175  139.2707  164.4871 C.3     1  UNL1        0.1166
     18 N         139.7570  139.7185  164.9324 N.am    1  UNL1       -0.2587
     19 C         139.1177  140.4593  163.7956 C.2     1  UNL1        0.3074
     20 O         137.7527  141.0810  163.8050 O.2     1  UNL1       -0.2523
     21 C         139.1435  139.4693  166.2784 C.3     1  UNL1        0.1426
     22 C         137.8964  138.6800  166.5464 C.3     1  UNL1        0.2044
     23 O         137.6515  138.6886  168.0262 O.3     1  UNL1       -0.2185
     24 O         138.7472  139.4831  168.6728 O.3     1  UNL1       -0.2185
     25 C         139.6693  139.9657  167.5926 C.3     1  UNL1        0.2044
@<TRIPOS>BOND
     1     2     3    1
     2     3     1    1
     3     1    14    1
     4    14    15    1
     5    15    16    1
     6    16    17    1
     7    17    18    1
     8    18    21    1
     9    21    22    1
    10    22    23    1
    11    23    24    1
    12    24    25    1
    13    18    19   am
    14    19    20    2
    15     3     4    1
    16     5     4    1
    17     5     6    1
    18     6     7    1
    19     8     7    1
    20     8     9    1
    21     9    10    1
    22     8    11    1
    23    11    12    1
    24    11    13    1
    25    19    15   am
    26    10     5    1
    27    25    21    1
    28    11     5    1
@<TRIPOS>MOLECULE
*****
 25 28 0 0 0
SMALL
GASTEIGER

@<TRIPOS>ATOM
      1 C         138.8520  138.1057  163.7743 C.3     1  UNL1        0.0939
      2 C         139.7170  138.1114  161.3245 C.3     1  UNL1        0.0897
      3 N         139.9486  137.8502  162.7834 N.3     1  UNL1       -0.2701
      4 C         141.2768  137.3335  163.2512 C.3     1  UNL1        0.0721
      5 C         142.4729  138.2387  163.2600 C.3     1  UNL1        0.0147
      6 C         143.1698  138.7906  162.0518 C.3     1  UNL1        0.0013
      7 C         144.3096  139.6439  162.5236 C.3     1  UNL1        0.0000
      8 C         144.3172  139.6193  164.0234 C.3     1  UNL1        0.0000
      9 C         143.6203  139.0674  165.2316 C.3     1  UNL1        0.0000
     10 C         142.4804  138.2141  164.7598 C.3     1  UNL1        0.0013
     11 C         143.1820  138.7509  164.4785 C.3     1  UNL1        0.0013
     12 C         143.3971  138.8838  165.9570 C.3     1  UNL1        0.0000
     13 C         142.3269  138.0827  165.5140 C.3     1  UNL1        0.0000
     14 C         138.4955  139.5128  164.1525 C.3     1  UNL1        0.1123
     15 N         139.4908  140.3698  164.8770 N.am    1  UNL1       -0.2609
     16 C         139.5991  140.5297  166.3645 C.3     1  UNL1        0.1165
     17 C         140.7278  141.4761  166.6480 C.3     1  UNL1        0.1166
     18 N         141.3171  141.9011  165.3357 N.am    1  UNL1       -0.2587
     19 C         140.5526  141.2174  164.2412 C.2     1  UNL1        0.3074
     20 O         140.8054  141.3568  162.7692 O.2     1  UNL1       -0.2523
     21 C         142.4687  142.8443  165.1504 C.3     1  UNL1        0.1426
     22 C         143.7840  142.7817  165.8690 C.3     1  UNL1        0.2044
     23 O         144.6353  143.9143  165.3768 O.3     1  UNL1       -0.2185
     24 O         143.8463  144.6769  164.3541 O.3     1  UNL1       -0.2185
     25 C         142.5072  144.0156  164.2142 C.3     1  UNL1        0.2044
@<TRIPOS>BOND
     1     2     3    1
     2     3     1    1
     3     1    14    1
     4    14    15    1
     5    15    16    1
     6    16    17    1
     7    17    18    1
     8    18    21    1
     9    21    22    1
    10    22    23    1
    11    23    24    1
    12    24    25    1
    13    18    19   am
    14    19    20    2
    15     3     4    1
    16     5     4    1
    17     5     6    1
    18     6     7    1
    19     8     7    1
    20     8     9    1
    21     9    10    1
    22     8    11    1
    23    11    12    1
    24    11    13    1
    25    19    15   am
    26    10     5    1
    27    25    21    1
    28    11     5    1
