@<TRIPOS>MOLECULE
*****
 33 37 0 0 0
SMALL
GASTEIGER

@<TRIPOS>ATOM
      1 C         140.1283  140.8868  170.2994 C.3     1  UNL1        0.0438
      2 C         140.5188  141.4862  168.9809 C.3     1  UNL1        0.1398
      3 C         141.3084  142.3610  169.9089 C.3     1  UNL1        0.0438
      4 O         141.1835  142.3895  167.9848 O.3     1  UNL1       -0.4826
      5 C         140.9229  142.2098  166.5186 C.ar    1  UNL1        0.1361
      6 C         141.5877  143.1130  165.5225 C.ar    1  UNL1        0.0379
      7 C         141.3271  142.9333  164.0563 C.ar    1  UNL1        0.0178
      8 C         140.4018  141.8503  163.5861 C.ar    1  UNL1        0.0505
      9 C         139.7371  140.9471  164.5823 C.ar    1  UNL1        0.0153
     10 C         139.9977  141.1268  166.0485 C.ar    1  UNL1        0.0369
     11 C         139.3330  140.2236  167.0446 C.3     1  UNL1        0.1581
     12 C         138.9778  139.9249  165.6181 C.3     1  UNL1        0.2351
     13 O         138.0257  138.7658  165.6104 O.2     1  UNL1       -0.4478
     14 C         137.7924  138.3481  167.0320 C.2     1  UNL1        0.2770
     15 N         136.9066  137.2264  167.4873 N.pl3   1  UNL1       -0.3133
     16 N         138.6003  139.2490  167.9185 N.2     1  UNL1       -0.2202
     17 C         139.5935  140.4033  168.5108 C.3     1  UNL1        0.1141
     18 C         139.7790  140.6553  168.2329 C.3     1  UNL1        0.1501
     19 O         139.5840  140.3904  168.5251 O.3     1  UNL1       -0.3532
     20 C         139.7790  140.6553  168.2329 C.3     1  UNL1        0.1501
     21 H         136.4142  136.6886  166.8259 H       1  UNL1        0.1466
     22 H         136.8178  137.0280  168.4475 H       1  UNL1        0.1466
     23 N         140.1413  141.6706  162.1199 N.am    1  UNL1       -0.2791
     24 C         138.9006  142.2450  161.5027 C.2     1  UNL1        0.2672
     25 O         137.9206  142.9991  162.3517 O.2     1  UNL1       -0.2682
     26 H         140.7845  141.1757  161.5627 H       1  UNL1        0.1552
     27 C         138.6401  142.0653  160.0365 C.ar    1  UNL1        0.1348
     28 C         138.1669  140.7406  159.5157 C.ar    1  UNL1        0.0246
     29 C         137.9064  140.5608  158.0494 C.ar    1  UNL1        0.0147
     30 C         138.1190  141.7058  157.1040 C.ar    1  UNL1        0.0768
     31 CL        137.8584  141.5261  155.6378 Cl      1  UNL1       -0.0806
     32 C         138.5922  143.0305  157.6249 C.ar    1  UNL1        0.1103
     33 N         138.8527  143.2103  159.0911 N.ar    1  UNL1       -0.2384
@<TRIPOS>BOND
     1     1     2    1
     2     2     3    1
     3     2     4    1
     4     4     5    1
     5     5     6   ar
     6     6     7   ar
     7     7     8   ar
     8     8    23    1
     9    23    24   am
    10    24    25    2
    11    24    27    1
    12    27    28   ar
    13    28    29   ar
    14    29    30   ar
    15    30    31    1
    16    30    32   ar
    17    32    33   ar
    18     8     9   ar
    19     9    10   ar
    20    10    11    1
    21    11    12    1
    22    12    13    1
    23    13    14    1
    24    14    15    1
    25    14    16    2
    26    11    17    1
    27    17    18    1
    28    18    19    1
    29    19    20    1
    30    17     2    1
    31    10     5   ar
    32    16    11    1
    33    20    17    1
    34    33    27   ar
    35    23    26    1
    36    15    21    1
    37    15    22    1
@<TRIPOS>MOLECULE
*****
 33 37 0 0 0
SMALL
GASTEIGER

@<TRIPOS>ATOM
      1 C         140.0570  141.0879  170.2698 C.3     1  UNL1        0.0438
      2 C         140.6746  141.3693  168.9320 C.3     1  UNL1        0.1398
      3 C         141.4936  142.2832  169.7945 C.3     1  UNL1        0.0438
      4 O         141.5766  141.9682  167.8938 O.3     1  UNL1       -0.4826
      5 C         141.4451  141.5554  166.4578 C.ar    1  UNL1        0.1361
      6 C         142.3471  142.1542  165.4196 C.ar    1  UNL1        0.0379
      7 C         142.2156  141.7414  163.9836 C.ar    1  UNL1        0.0178
      8 C         141.1821  140.7297  163.5857 C.ar    1  UNL1        0.0505
      9 C         140.2801  140.1308  164.6238 C.ar    1  UNL1        0.0153
     10 C         140.4116  140.5437  166.0599 C.ar    1  UNL1        0.0369
     11 C         139.5096  139.9448  167.0981 C.3     1  UNL1        0.1581
     12 C         139.2620  139.4370  165.7085 C.3     1  UNL1        0.2351
     13 O         138.1415  138.4416  165.7715 O.2     1  UNL1       -0.4478
     14 C         137.6967  138.3342  167.2000 C.2     1  UNL1        0.2770
     15 N         136.5991  137.4526  167.7177 N.pl3   1  UNL1       -0.3133
     16 N         138.5422  139.2632  168.0199 N.2     1  UNL1       -0.2202
     17 C         139.6411  140.3576  168.5341 C.3     1  UNL1        0.1141
     18 C         139.8928  140.5247  168.2445 C.3     1  UNL1        0.1501
     19 O         139.6282  140.3491  168.5489 O.3     1  UNL1       -0.3532
     20 C         139.8928  140.5247  168.2445 C.3     1  UNL1        0.1501
     21 H         136.0982  136.8746  167.0978 H       1  UNL1        0.1466
     22 H         136.3797  137.4519  168.6774 H       1  UNL1        0.1466
     23 N         141.0506  140.3169  162.1496 N.am    1  UNL1       -0.2791
     24 C         141.6642  139.0313  161.6796 C.2     1  UNL1        0.2672
     25 O         142.4093  138.1586  162.6456 O.2     1  UNL1       -0.2682
     26 H         140.5615  140.8896  161.5156 H       1  UNL1        0.1552
     27 C         141.5327  138.6185  160.2435 C.ar    1  UNL1        0.1348
     28 C         140.1956  138.6758  159.5661 C.ar    1  UNL1        0.0246
     29 C         140.0641  138.2630  158.1300 C.ar    1  UNL1        0.0147
     30 C         141.2697  137.7929  157.3714 C.ar    1  UNL1        0.0768
     31 CL        141.1382  137.3801  155.9353 Cl      1  UNL1       -0.0806
     32 C         142.6068  137.7356  158.0488 C.ar    1  UNL1        0.1103
     33 N         142.7383  138.1484  159.4849 N.ar    1  UNL1       -0.2384
@<TRIPOS>BOND
     1     1     2    1
     2     2     3    1
     3     2     4    1
     4     4     5    1
     5     5     6   ar
     6     6     7   ar
     7     7     8   ar
     8     8    23    1
     9    23    24   am
    10    24    25    2
    11    24    27    1
    12    27    28   ar
    13    28    29   ar
    14    29    30   ar
    15    30    31    1
    16    30    32   ar
    17    32    33   ar
    18     8     9   ar
    19     9    10   ar
    20    10    11    1
    21    11    12    1
    22    12    13    1
    23    13    14    1
    24    14    15    1
    25    14    16    2
    26    11    17    1
    27    17    18    1
    28    18    19    1
    29    19    20    1
    30    17     2    1
    31    10     5   ar
    32    16    11    1
    33    20    17    1
    34    33    27   ar
    35    23    26    1
    36    15    21    1
    37    15    22    1
@<TRIPOS>MOLECULE
*****
 33 37 0 0 0
SMALL
GASTEIGER

@<TRIPOS>ATOM
      1 C         142.3803  141.7674  167.5513 C.3     1  UNL1        0.0438
      2 C         141.5221  142.5793  166.6268 C.3     1  UNL1        0.1398
      3 C         140.6026  142.4694  167.8068 C.3     1  UNL1        0.0438
      4 O         140.3446  143.3530  166.1122 O.3     1  UNL1       -0.4826
      5 C         140.3847  143.9546  164.7388 C.ar    1  UNL1        0.1361
      6 C         139.2072  144.7283  164.2242 C.ar    1  UNL1        0.0379
      7 C         139.2473  145.3299  162.8507 C.ar    1  UNL1        0.0178
      8 C         140.4650  145.1579  161.9918 C.ar    1  UNL1        0.0505
      9 C         141.6425  144.3842  162.5064 C.ar    1  UNL1        0.0153
     10 C         141.6024  143.7825  163.8799 C.ar    1  UNL1        0.0369
     11 C         142.7799  143.0088  164.3945 C.3     1  UNL1        0.1581
     12 C         142.9644  143.5501  163.0077 C.3     1  UNL1        0.2351
     13 O         144.3255  143.1410  162.5278 O.2     1  UNL1       -0.4478
     14 C         144.9821  142.3470  163.6179 C.2     1  UNL1        0.2770
     15 N         146.3532  141.7411  163.5637 N.pl3   1  UNL1       -0.3133
     16 N         144.0269  142.2653  164.7716 N.2     1  UNL1       -0.2202
     17 C         142.7398  142.4072  165.7680 C.3     1  UNL1        0.1141
     18 C         142.4113  142.6231  165.6244 C.3     1  UNL1        0.1501
     19 O         142.7566  142.3962  165.7753 O.3     1  UNL1       -0.3532
     20 C         142.4113  142.6231  165.6244 C.3     1  UNL1        0.1501
     21 H         146.9080  141.8499  162.7578 H       1  UNL1        0.1466
     22 H         146.6983  141.2346  164.3342 H       1  UNL1        0.1466
     23 N         140.5051  145.7595  160.6184 N.am    1  UNL1       -0.2791
     24 C         140.4434  144.8736  159.4094 C.2     1  UNL1        0.2672
     25 O         140.3415  143.3861  159.5740 O.2     1  UNL1       -0.2682
     26 H         140.5720  146.7357  160.5103 H       1  UNL1        0.1552
     27 C         140.4835  145.4752  158.0359 C.ar    1  UNL1        0.1348
     28 C         141.4522  144.9533  157.0166 C.ar    1  UNL1        0.0246
     29 C         141.4923  145.5549  155.6430 C.ar    1  UNL1        0.0147
     30 C         140.5637  146.6784  155.2889 C.ar    1  UNL1        0.0768
     31 CL        140.6039  147.2800  153.9155 Cl      1  UNL1       -0.0806
     32 C         139.5950  147.2003  156.3084 C.ar    1  UNL1        0.1103
     33 N         139.5549  146.5987  157.6818 N.ar    1  UNL1       -0.2384
@<TRIPOS>BOND
     1     1     2    1
     2     2     3    1
     3     2     4    1
     4     4     5    1
     5     5     6   ar
     6     6     7   ar
     7     7     8   ar
     8     8    23    1
     9    23    24   am
    10    24    25    2
    11    24    27    1
    12    27    28   ar
    13    28    29   ar
    14    29    30   ar
    15    30    31    1
    16    30    32   ar
    17    32    33   ar
    18     8     9   ar
    19     9    10   ar
    20    10    11    1
    21    11    12    1
    22    12    13    1
    23    13    14    1
    24    14    15    1
    25    14    16    2
    26    11    17    1
    27    17    18    1
    28    18    19    1
    29    19    20    1
    30    17     2    1
    31    10     5   ar
    32    16    11    1
    33    20    17    1
    34    33    27   ar
    35    23    26    1
    36    15    21    1
    37    15    22    1
@<TRIPOS>MOLECULE
*****
 33 37 0 0 0
SMALL
GASTEIGER

@<TRIPOS>ATOM
      1 C         139.6694  140.0783  167.0413 C.3     1  UNL1        0.0438
      2 C         139.8552  141.3535  166.2735 C.3     1  UNL1        0.1398
      3 C         140.2415  141.8175  167.6466 C.3     1  UNL1        0.0438
      4 O         140.1752  142.7898  165.9826 O.3     1  UNL1       -0.4826
      5 C         140.0444  143.3193  164.5853 C.ar    1  UNL1        0.1361
      6 C         140.3644  144.7556  164.2944 C.ar    1  UNL1        0.0379
      7 C         140.2336  145.2850  162.8971 C.ar    1  UNL1        0.0178
      8 C         139.7827  144.3781  161.7906 C.ar    1  UNL1        0.0505
      9 C         139.4627  142.9418  162.0814 C.ar    1  UNL1        0.0153
     10 C         139.5936  142.4124  163.4788 C.ar    1  UNL1        0.0369
     11 C         139.2736  140.9761  163.7697 C.3     1  UNL1        0.1581
     12 C         139.0969  141.3612  162.3307 C.3     1  UNL1        0.2351
     13 O         138.6344  140.1479  161.5796 O.2     1  UNL1       -0.4478
     14 C         138.5252  139.0130  162.5543 C.2     1  UNL1        0.2770
     15 N         138.0963  137.6122  162.2320 N.pl3   1  UNL1       -0.3133
     16 N         138.9202  139.5248  163.9079 N.2     1  UNL1       -0.2202
     17 C         139.4044  140.4466  165.1670 C.3     1  UNL1        0.1141
     18 C         139.4937  140.8474  165.0859 C.3     1  UNL1        0.1501
     19 O         139.3999  140.4261  165.1712 O.3     1  UNL1       -0.3532
     20 C         139.4937  140.8474  165.0859 C.3     1  UNL1        0.1501
     21 H         137.8551  137.3715  161.3084 H       1  UNL1        0.1466
     22 H         138.0559  136.9337  162.9441 H       1  UNL1        0.1466
     23 N         139.6519  144.9076  160.3932 N.am    1  UNL1       -0.2791
     24 C         140.8687  145.0476  159.5272 C.2     1  UNL1        0.2672
     25 O         142.2163  144.6582  160.0586 O.2     1  UNL1       -0.2682
     26 H         138.7674  145.1631  160.0445 H       1  UNL1        0.1552
     27 C         140.7379  145.5770  158.1299 C.ar    1  UNL1        0.1348
     28 C         141.7492  145.2014  157.0879 C.ar    1  UNL1        0.0246
     29 C         141.6184  145.7308  155.6905 C.ar    1  UNL1        0.0147
     30 C         140.4762  146.6359  155.3352 C.ar    1  UNL1        0.0768
     31 CL        140.3454  147.1654  153.9379 Cl      1  UNL1       -0.0806
     32 C         139.4648  147.0116  156.3774 C.ar    1  UNL1        0.1103
     33 N         139.5957  146.4821  157.7747 N.ar    1  UNL1       -0.2384
@<TRIPOS>BOND
     1     1     2    1
     2     2     3    1
     3     2     4    1
     4     4     5    1
     5     5     6   ar
     6     6     7   ar
     7     7     8   ar
     8     8    23    1
     9    23    24   am
    10    24    25    2
    11    24    27    1
    12    27    28   ar
    13    28    29   ar
    14    29    30   ar
    15    30    31    1
    16    30    32   ar
    17    32    33   ar
    18     8     9   ar
    19     9    10   ar
    20    10    11    1
    21    11    12    1
    22    12    13    1
    23    13    14    1
    24    14    15    1
    25    14    16    2
    26    11    17    1
    27    17    18    1
    28    18    19    1
    29    19    20    1
    30    17     2    1
    31    10     5   ar
    32    16    11    1
    33    20    17    1
    34    33    27   ar
    35    23    26    1
    36    15    21    1
    37    15    22    1
@<TRIPOS>MOLECULE
*****
 33 37 0 0 0
SMALL
GASTEIGER

@<TRIPOS>ATOM
      1 C         142.4055  141.3101  170.2759 C.3     1  UNL1        0.0438
      2 C         142.9136  141.8991  168.9933 C.3     1  UNL1        0.1398
      3 C         143.9425  142.4275  169.9484 C.3     1  UNL1        0.0438
      4 O         143.7791  142.6718  168.0425 O.3     1  UNL1       -0.4826
      5 C         143.4393  142.7113  166.5821 C.ar    1  UNL1        0.1361
      6 C         144.3048  143.4839  165.6313 C.ar    1  UNL1        0.0379
      7 C         143.9649  143.5235  164.1709 C.ar    1  UNL1        0.0178
      8 C         142.7595  142.7905  163.6612 C.ar    1  UNL1        0.0505
      9 C         141.8940  142.0179  164.6120 C.ar    1  UNL1        0.0153
     10 C         142.2339  141.9783  166.0725 C.ar    1  UNL1        0.0369
     11 C         141.3684  141.2057  167.0233 C.3     1  UNL1        0.1581
     12 C         140.9054  141.1542  165.5974 C.3     1  UNL1        0.2351
     13 O         139.6652  140.3121  165.5429 O.2     1  UNL1       -0.4478
     14 C         139.3617  139.8432  166.9350 C.2     1  UNL1        0.2770
     15 N         138.2082  138.9746  167.3409 N.pl3   1  UNL1       -0.3133
     16 N         140.4144  140.3955  167.8499 N.2     1  UNL1       -0.2202
     17 C         141.7083  141.1661  168.4837 C.3     1  UNL1        0.1141
     18 C         141.9498  141.3817  168.2184 C.3     1  UNL1        0.1501
     19 O         141.6959  141.1551  168.4972 O.3     1  UNL1       -0.3532
     20 C         141.9498  141.3817  168.2184 C.3     1  UNL1        0.1501
     21 H         137.5665  138.6602  166.6637 H       1  UNL1        0.1466
     22 H         138.0928  138.7188  168.2846 H       1  UNL1        0.1466
     23 N         142.4196  142.8301  162.2008 N.am    1  UNL1       -0.2791
     24 C         141.7865  144.0554  161.6110 C.2     1  UNL1        0.2672
     25 O         141.4932  145.2411  162.4817 O.2     1  UNL1       -0.2682
     26 H         142.6121  142.0519  161.6293 H       1  UNL1        0.1552
     27 C         141.4466  144.0950  160.1505 C.ar    1  UNL1        0.1348
     28 C         140.9761  142.8515  159.4561 C.ar    1  UNL1        0.0246
     29 C         140.6362  142.8911  157.9956 C.ar    1  UNL1        0.0147
     30 C         140.7669  144.1742  157.2296 C.ar    1  UNL1        0.0768
     31 CL        140.4270  144.2137  155.7692 Cl      1  UNL1       -0.0806
     32 C         141.2374  145.4177  157.9242 C.ar    1  UNL1        0.1103
     33 N         141.5773  145.3781  159.3846 N.ar    1  UNL1       -0.2384
@<TRIPOS>BOND
     1     1     2    1
     2     2     3    1
     3     2     4    1
     4     4     5    1
     5     5     6   ar
     6     6     7   ar
     7     7     8   ar
     8     8    23    1
     9    23    24   am
    10    24    25    2
    11    24    27    1
    12    27    28   ar
    13    28    29   ar
    14    29    30   ar
    15    30    31    1
    16    30    32   ar
    17    32    33   ar
    18     8     9   ar
    19     9    10   ar
    20    10    11    1
    21    11    12    1
    22    12    13    1
    23    13    14    1
    24    14    15    1
    25    14    16    2
    26    11    17    1
    27    17    18    1
    28    18    19    1
    29    19    20    1
    30    17     2    1
    31    10     5   ar
    32    16    11    1
    33    20    17    1
    34    33    27   ar
    35    23    26    1
    36    15    21    1
    37    15    22    1
@<TRIPOS>MOLECULE
*****
 33 37 0 0 0
SMALL
GASTEIGER

@<TRIPOS>ATOM
      1 C         139.0460  139.6170  167.7168 C.3     1  UNL1        0.0438
      2 C         138.9195  139.1765  166.2884 C.3     1  UNL1        0.1398
      3 C         137.7563  138.4456  166.8906 C.3     1  UNL1        0.0438
      4 O         138.3889  138.4821  165.0693 O.3     1  UNL1       -0.4826
      5 C         139.0656  138.6716  163.7441 C.ar    1  UNL1        0.1361
      6 C         138.5350  137.9772  162.5249 C.ar    1  UNL1        0.0379
      7 C         139.2116  138.1667  161.1997 C.ar    1  UNL1        0.0178
      8 C         140.4189  139.0507  161.0936 C.ar    1  UNL1        0.0505
      9 C         140.9494  139.7451  162.3128 C.ar    1  UNL1        0.0153
     10 C         140.2727  139.5555  163.6380 C.ar    1  UNL1        0.0369
     11 C         140.8033  140.2499  164.8572 C.3     1  UNL1        0.1581
     12 C         141.5812  140.5337  163.6063 C.3     1  UNL1        0.2351
     13 O         142.7033  141.4645  163.9595 O.2     1  UNL1       -0.4478
     14 C         142.6189  141.7560  165.4284 C.2     1  UNL1        0.2770
     15 N         143.5460  142.6425  166.2060 N.pl3   1  UNL1       -0.3133
     16 N         141.4447  141.0053  165.9833 N.2     1  UNL1       -0.2202
     17 C         140.1267  140.0604  166.1824 C.3     1  UNL1        0.1141
     18 C         139.9786  139.8667  165.8422 C.3     1  UNL1        0.1501
     19 O         140.1342  140.0703  166.1998 O.3     1  UNL1       -0.3532
     20 C         139.9786  139.8667  165.8422 C.3     1  UNL1        0.1501
     21 H         144.2923  143.0947  165.7503 H       1  UNL1        0.1466
     22 H         143.4081  142.7721  167.1722 H       1  UNL1        0.1466
     23 N         141.0955  139.2402  159.7684 N.am    1  UNL1       -0.2791
     24 C         142.3497  138.4810  159.4513 C.2     1  UNL1        0.2672
     25 O         142.9272  137.5322  160.4594 O.2     1  UNL1       -0.2682
     26 H         140.7164  139.8630  159.1068 H       1  UNL1        0.1552
     27 C         143.0264  138.6705  158.1261 C.ar    1  UNL1        0.1348
     28 C         142.8191  137.6696  157.0283 C.ar    1  UNL1        0.0246
     29 C         143.4958  137.8591  155.7030 C.ar    1  UNL1        0.0147
     30 C         144.3796  139.0495  155.4756 C.ar    1  UNL1        0.0768
     31 CL        145.0562  139.2391  154.1504 Cl      1  UNL1       -0.0806
     32 C         144.5868  140.0504  156.5735 C.ar    1  UNL1        0.1103
     33 N         143.9102  139.8609  157.8987 N.ar    1  UNL1       -0.2384
@<TRIPOS>BOND
     1     1     2    1
     2     2     3    1
     3     2     4    1
     4     4     5    1
     5     5     6   ar
     6     6     7   ar
     7     7     8   ar
     8     8    23    1
     9    23    24   am
    10    24    25    2
    11    24    27    1
    12    27    28   ar
    13    28    29   ar
    14    29    30   ar
    15    30    31    1
    16    30    32   ar
    17    32    33   ar
    18     8     9   ar
    19     9    10   ar
    20    10    11    1
    21    11    12    1
    22    12    13    1
    23    13    14    1
    24    14    15    1
    25    14    16    2
    26    11    17    1
    27    17    18    1
    28    18    19    1
    29    19    20    1
    30    17     2    1
    31    10     5   ar
    32    16    11    1
    33    20    17    1
    34    33    27   ar
    35    23    26    1
    36    15    21    1
    37    15    22    1
@<TRIPOS>MOLECULE
*****
 33 37 0 0 0
SMALL
GASTEIGER

@<TRIPOS>ATOM
      1 C         140.3983  141.7283  169.6980 C.3     1  UNL1        0.0438
      2 C         139.9428  140.7875  168.6221 C.3     1  UNL1        0.1398
      3 C         138.9442  140.4618  169.6929 C.3     1  UNL1        0.0438
      4 O         139.1404  139.7336  167.9181 O.3     1  UNL1       -0.4826
      5 C         139.4949  139.3321  166.5170 C.ar    1  UNL1        0.1361
      6 C         138.6925  138.2782  165.8131 C.ar    1  UNL1        0.0379
      7 C         139.0470  137.8767  164.4120 C.ar    1  UNL1        0.0178
      8 C         140.2039  138.5291  163.7148 C.ar    1  UNL1        0.0505
      9 C         141.0062  139.5830  164.4187 C.ar    1  UNL1        0.0153
     10 C         140.6517  139.9845  165.8199 C.ar    1  UNL1        0.0369
     11 C         141.4541  141.0384  166.5238 C.3     1  UNL1        0.1581
     12 C         141.9249  140.7421  165.1307 C.3     1  UNL1        0.2351
     13 O         143.1051  141.6223  164.8433 O.2     1  UNL1       -0.4478
     14 C         143.3636  142.4626  166.0586 C.2     1  UNL1        0.2770
     15 N         144.4515  143.4843  166.2089 N.pl3   1  UNL1       -0.3133
     16 N         142.3432  142.1017  167.0973 N.2     1  UNL1       -0.2202
     17 C         141.0996  141.4399  167.9249 C.3     1  UNL1        0.1141
     18 C         140.8757  141.1458  167.7285 C.3     1  UNL1        0.1501
     19 O         141.1110  141.4549  167.9350 O.3     1  UNL1       -0.3532
     20 C         140.8757  141.1458  167.7285 C.3     1  UNL1        0.1501
     21 H         145.0761  143.6511  165.4665 H       1  UNL1        0.1466
     22 H         144.5409  143.9880  167.0501 H       1  UNL1        0.1466
     23 N         140.5584  138.1276  162.3137 N.am    1  UNL1       -0.2791
     24 C         140.1360  138.9856  161.1580 C.2     1  UNL1        0.2672
     25 O         139.3591  140.2451  161.4035 O.2     1  UNL1       -0.2682
     26 H         141.0682  137.3010  162.1526 H       1  UNL1        0.1552
     27 C         140.4905  138.5842  159.7569 C.ar    1  UNL1        0.1348
     28 C         141.9200  138.3110  159.3940 C.ar    1  UNL1        0.0246
     29 C         142.2745  137.9095  157.9928 C.ar    1  UNL1        0.0147
     30 C         141.1995  137.7812  156.9546 C.ar    1  UNL1        0.0768
     31 CL        141.5539  137.3797  155.5535 Cl      1  UNL1       -0.0806
     32 C         139.7699  138.0544  157.3176 C.ar    1  UNL1        0.1103
     33 N         139.4154  138.4558  158.7187 N.ar    1  UNL1       -0.2384
@<TRIPOS>BOND
     1     1     2    1
     2     2     3    1
     3     2     4    1
     4     4     5    1
     5     5     6   ar
     6     6     7   ar
     7     7     8   ar
     8     8    23    1
     9    23    24   am
    10    24    25    2
    11    24    27    1
    12    27    28   ar
    13    28    29   ar
    14    29    30   ar
    15    30    31    1
    16    30    32   ar
    17    32    33   ar
    18     8     9   ar
    19     9    10   ar
    20    10    11    1
    21    11    12    1
    22    12    13    1
    23    13    14    1
    24    14    15    1
    25    14    16    2
    26    11    17    1
    27    17    18    1
    28    18    19    1
    29    19    20    1
    30    17     2    1
    31    10     5   ar
    32    16    11    1
    33    20    17    1
    34    33    27   ar
    35    23    26    1
    36    15    21    1
    37    15    22    1
@<TRIPOS>MOLECULE
*****
 33 37 0 0 0
SMALL
GASTEIGER

@<TRIPOS>ATOM
      1 C         139.6601  143.9669  165.6981 C.3     1  UNL1        0.0438
      2 C         140.8491  143.3136  165.0580 C.3     1  UNL1        0.1398
      3 C         140.8602  142.6259  166.3910 C.3     1  UNL1        0.0438
      4 O         142.0419  142.4215  164.8808 O.3     1  UNL1       -0.4826
      5 C         142.8107  142.4441  163.5930 C.ar    1  UNL1        0.1361
      6 C         144.0035  141.5520  163.4159 C.ar    1  UNL1        0.0379
      7 C         144.7722  141.5745  162.1281 C.ar    1  UNL1        0.0178
      8 C         144.3482  142.4891  161.0174 C.ar    1  UNL1        0.0505
      9 C         143.1554  143.3812  161.1945 C.ar    1  UNL1        0.0153
     10 C         142.3866  143.3586  162.4824 C.ar    1  UNL1        0.0369
     11 C         141.1938  144.2507  162.6595 C.3     1  UNL1        0.1581
     12 C         141.8608  144.3822  161.3223 C.3     1  UNL1        0.2351
     13 O         141.1074  145.4072  160.5273 O.2     1  UNL1       -0.4478
     14 C         139.9749  145.9092  161.3731 C.2     1  UNL1        0.2770
     15 N         138.9662  146.9443  160.9717 N.pl3   1  UNL1       -0.3133
     16 N         140.0283  145.1945  162.6909 N.2     1  UNL1       -0.2202
     17 C         140.4250  144.2282  163.9473 C.3     1  UNL1        0.1141
     18 C         140.7578  143.9793  163.8979 C.3     1  UNL1        0.1501
     19 O         140.4080  144.2409  163.9498 O.3     1  UNL1       -0.3532
     20 C         140.7578  143.9793  163.8979 C.3     1  UNL1        0.1501
     21 H         139.0143  147.3586  160.0799 H       1  UNL1        0.1466
     22 H         138.2561  147.2092  161.6000 H       1  UNL1        0.1466
     23 N         145.1169  142.5116  159.7296 N.am    1  UNL1       -0.2791
     24 C         144.6285  141.7232  158.5506 C.2     1  UNL1        0.2672
     25 O         143.3712  140.9123  158.6595 O.2     1  UNL1       -0.2682
     26 H         145.9421  143.0438  159.6581 H       1  UNL1        0.1552
     27 C         145.3972  141.7457  157.2628 C.ar    1  UNL1        0.1348
     28 C         146.6859  142.5079  157.1719 C.ar    1  UNL1        0.0246
     29 C         147.4547  142.5305  155.8840 C.ar    1  UNL1        0.0147
     30 C         146.9348  141.7908  154.6871 C.ar    1  UNL1        0.0768
     31 CL        147.7035  141.8133  153.3994 Cl      1  UNL1       -0.0806
     32 C         145.6460  141.0285  154.7781 C.ar    1  UNL1        0.1103
     33 N         144.8773  141.0060  156.0659 N.ar    1  UNL1       -0.2384
@<TRIPOS>BOND
     1     1     2    1
     2     2     3    1
     3     2     4    1
     4     4     5    1
     5     5     6   ar
     6     6     7   ar
     7     7     8   ar
     8     8    23    1
     9    23    24   am
    10    24    25    2
    11    24    27    1
    12    27    28   ar
    13    28    29   ar
    14    29    30   ar
    15    30    31    1
    16    30    32   ar
    17    32    33   ar
    18     8     9   ar
    19     9    10   ar
    20    10    11    1
    21    11    12    1
    22    12    13    1
    23    13    14    1
    24    14    15    1
    25    14    16    2
    26    11    17    1
    27    17    18    1
    28    18    19    1
    29    19    20    1
    30    17     2    1
    31    10     5   ar
    32    16    11    1
    33    20    17    1
    34    33    27   ar
    35    23    26    1
    36    15    21    1
    37    15    22    1
@<TRIPOS>MOLECULE
*****
 33 37 0 0 0
SMALL
GASTEIGER

@<TRIPOS>ATOM
      1 C         140.9402  132.7898  153.1333 C.3     1  UNL1        0.0438
      2 C         141.1624  134.2123  153.5546 C.3     1  UNL1        0.1398
      3 C         140.4239  134.4338  152.2679 C.3     1  UNL1        0.0438
      4 O         141.1280  135.7117  153.5289 O.3     1  UNL1       -0.4826
      5 C         141.7549  136.4954  154.6436 C.ar    1  UNL1        0.1361
      6 C         141.7206  137.9948  154.6179 C.ar    1  UNL1        0.0379
      7 C         142.3475  138.7786  155.7325 C.ar    1  UNL1        0.0178
      8 C         143.0089  138.0630  156.8730 C.ar    1  UNL1        0.0505
      9 C         143.0432  136.5636  156.8987 C.ar    1  UNL1        0.0153
     10 C         142.4162  135.7798  155.7840 C.ar    1  UNL1        0.0369
     11 C         142.4506  134.2805  155.8097 C.3     1  UNL1        0.1581
     12 C         143.1162  134.9263  156.9887 C.3     1  UNL1        0.2351
     13 O         143.6394  133.8383  157.8790 O.2     1  UNL1       -0.4478
     14 C         143.2972  132.5201  157.2503 C.2     1  UNL1        0.2770
     15 N         143.6312  131.1664  157.8033 N.pl3   1  UNL1       -0.3133
     16 N         142.5625  132.7934  155.9713 N.2     1  UNL1       -0.2202
     17 C         141.8237  133.4967  154.6950 C.3     1  UNL1        0.1141
     18 C         141.8141  133.9150  154.6878 C.3     1  UNL1        0.1501
     19 O         141.8242  133.4753  154.6953 O.3     1  UNL1       -0.3532
     20 C         141.8141  133.9150  154.6878 C.3     1  UNL1        0.1501
     21 H         144.1190  131.0892  158.6550 H       1  UNL1        0.1466
     22 H         143.3625  130.3550  157.3147 H       1  UNL1        0.1466
     23 N         143.6358  138.8468  157.9877 N.am    1  UNL1       -0.2791
     24 C         142.9691  138.9062  159.3302 C.2     1  UNL1        0.2672
     25 O         141.6755  138.1818  159.5578 O.2     1  UNL1       -0.2682
     26 H         144.4848  139.3222  157.8383 H       1  UNL1        0.1552
     27 C         143.5961  139.6900  160.4449 C.ar    1  UNL1        0.1348
     28 C         143.8411  139.0391  161.7739 C.ar    1  UNL1        0.0246
     29 C         144.4680  139.8229  162.8886 C.ar    1  UNL1        0.0147
     30 C         144.8500  141.2576  162.6743 C.ar    1  UNL1        0.0768
     31 CL        145.4769  142.0414  163.7890 Cl      1  UNL1       -0.0806
     32 C         144.6049  141.9084  161.3452 C.ar    1  UNL1        0.1103
     33 N         143.9780  141.1246  160.2305 N.ar    1  UNL1       -0.2384
@<TRIPOS>BOND
     1     1     2    1
     2     2     3    1
     3     2     4    1
     4     4     5    1
     5     5     6   ar
     6     6     7   ar
     7     7     8   ar
     8     8    23    1
     9    23    24   am
    10    24    25    2
    11    24    27    1
    12    27    28   ar
    13    28    29   ar
    14    29    30   ar
    15    30    31    1
    16    30    32   ar
    17    32    33   ar
    18     8     9   ar
    19     9    10   ar
    20    10    11    1
    21    11    12    1
    22    12    13    1
    23    13    14    1
    24    14    15    1
    25    14    16    2
    26    11    17    1
    27    17    18    1
    28    18    19    1
    29    19    20    1
    30    17     2    1
    31    10     5   ar
    32    16    11    1
    33    20    17    1
    34    33    27   ar
    35    23    26    1
    36    15    21    1
    37    15    22    1
