@<TRIPOS>MOLECULE
*****
 35 39 0 0 0
SMALL
GASTEIGER

@<TRIPOS>ATOM
      1 C         141.9011  139.1900  158.0941 C.2     1  UNL1        0.3045
      2 O         140.6635  139.7828  157.4886 O.2     1  UNL1       -0.2647
      3 N         142.4694  139.7680  159.3563 N.am    1  UNL1       -0.2720
      4 C         143.7070  139.1752  159.9619 C.3     1  UNL1        0.0976
      5 C         144.2752  139.7532  161.2240 C.3     1  UNL1        0.0651
      6 C         143.6058  140.9239  161.8806 C.3     1  UNL1        0.1693
      7 C         142.3681  141.5167  161.2750 C.3     1  UNL1        0.0651
      8 C         141.7999  140.9387  160.0128 C.3     1  UNL1        0.0976
      9 C         143.1473  135.7498  156.7990 C.ar    1  UNL1        0.2501
     10 N         144.0540  136.6852  156.0554 N.ar    1  UNL1       -0.1068
     11 N         143.6975  138.0878  156.4500 N.ar    1  UNL1       -0.1021
     12 C         142.5705  138.0192  157.4376 C.ar    1  UNL1        0.3042
     13 O         142.2305  136.5743  157.6532 O.2     1  UNL1       -0.4122
     14 C         143.1732  131.2587  156.5166 C.ar    1  UNL1        0.1387
     15 C         144.1934  131.9630  157.3610 C.ar    1  UNL1        0.0371
     16 C         144.1848  133.4601  157.4551 C.ar    1  UNL1        0.0078
     17 C         143.1559  134.2528  156.7049 C.ar    1  UNL1        0.0553
     18 C         142.1357  133.5485  155.8605 C.ar    1  UNL1        0.0078
     19 C         142.1443  132.0515  155.7664 C.ar    1  UNL1        0.0371
     20 C         143.3494  128.9333  157.6617 C.3     1  UNL1        0.2525
     21 O         143.1818  129.7617  156.4225 O.3     1  UNL1       -0.4714
     22 O         144.1741  141.5019  163.1428 O.3     1  UNL1       -0.4791
     23 C         143.7499  140.9572  164.4745 C.ar    1  UNL1        0.1384
     24 C         143.2440  141.8861  165.5380 C.ar    1  UNL1        0.0366
     25 C         142.8199  141.3415  166.8697 C.ar    1  UNL1        0.0002
     26 C         142.9017  139.8679  167.1378 C.ar    1  UNL1       -0.0059
     27 C         143.4077  138.9390  166.0743 C.ar    1  UNL1        0.0002
     28 C         143.8318  139.4836  164.7426 C.ar    1  UNL1        0.0366
     29 C         142.4776  139.3232  168.4696 C.3     1  UNL1        0.0993
     30 N         141.5332  140.1052  169.3335 N.3     1  UNL1       -0.2646
     31 C         142.0630  140.9262  170.4717 C.3     1  UNL1        0.1049
     32 C         141.1186  141.7083  171.3356 C.3     1  UNL1        0.1595
     33 O         139.6444  141.6694  171.0615 O.3     1  UNL1       -0.3508
     34 C         139.1146  140.8485  169.9233 C.3     1  UNL1        0.1595
     35 C         140.0590  140.0664  169.0593 C.3     1  UNL1        0.1049
@<TRIPOS>BOND
     1    20    21    1
     2    21    14    1
     3    14    15   ar
     4    15    16   ar
     5    16    17   ar
     6    17     9    1
     7     9    10   ar
     8    10    11   ar
     9    11    12   ar
    10    12     1    1
    11     1     2    2
    12     1     3   am
    13     3     4    1
    14     4     5    1
    15     5     6    1
    16     6    22    1
    17    22    23    1
    18    23    24   ar
    19    24    25   ar
    20    25    26   ar
    21    26    29    1
    22    29    30    1
    23    30    31    1
    24    31    32    1
    25    32    33    1
    26    33    34    1
    27    34    35    1
    28    26    27   ar
    29    27    28   ar
    30     6     7    1
    31     7     8    1
    32    12    13   ar
    33    17    18   ar
    34    18    19   ar
    35    19    14   ar
    36    13     9   ar
    37     8     3    1
    38    28    23   ar
    39    35    30    1
@<TRIPOS>MOLECULE
*****
 35 39 0 0 0
SMALL
GASTEIGER

@<TRIPOS>ATOM
      1 C         139.7621  139.1410  157.6704 C.2     1  UNL1        0.3045
      2 O         139.0197  139.8896  156.6034 O.2     1  UNL1       -0.2647
      3 N         139.3285  139.2490  159.1023 N.am    1  UNL1       -0.2720
      4 C         140.0709  138.5003  160.1692 C.3     1  UNL1        0.0976
      5 C         139.6374  138.6084  161.6011 C.3     1  UNL1        0.0651
      6 C         138.4614  139.4650  161.9660 C.3     1  UNL1        0.1693
      7 C         137.7190  140.2137  160.8991 C.3     1  UNL1        0.0651
      8 C         138.1526  140.1056  159.4672 C.3     1  UNL1        0.0976
      9 C         142.2839  136.4008  156.5761 C.ar    1  UNL1        0.2501
     10 N         143.2113  137.5310  156.9113 N.ar    1  UNL1       -0.1068
     11 N         142.3796  138.6951  157.3621 N.ar    1  UNL1       -0.1021
     12 C         140.9381  138.2843  157.3054 C.ar    1  UNL1        0.3042
     13 O         140.8789  136.8663  156.8196 O.2     1  UNL1       -0.4122
     14 C         143.5025  132.3285  155.0990 C.ar    1  UNL1        0.1387
     15 C         142.6658  133.2215  154.2316 C.ar    1  UNL1        0.0371
     16 C         142.2596  134.5790  154.7240 C.ar    1  UNL1        0.0078
     17 C         142.6901  135.0434  156.0837 C.ar    1  UNL1        0.0553
     18 C         143.5268  134.1503  156.9511 C.ar    1  UNL1        0.0078
     19 C         143.9330  132.7929  156.4588 C.ar    1  UNL1        0.0371
     20 C         144.8669  130.1390  155.4063 C.3     1  UNL1        0.2525
     21 O         143.9087  130.9711  154.6067 O.3     1  UNL1       -0.4714
     22 O         138.0278  139.5731  163.3980 O.3     1  UNL1       -0.4791
     23 C         138.9278  140.2223  164.4072 C.ar    1  UNL1        0.1384
     24 C         138.9176  141.7132  164.5718 C.ar    1  UNL1        0.0366
     25 C         139.8176  142.3624  165.5810 C.ar    1  UNL1        0.0002
     26 C         140.7278  141.5208  166.4255 C.ar    1  UNL1       -0.0059
     27 C         140.7379  140.0299  166.2609 C.ar    1  UNL1        0.0002
     28 C         139.8379  139.3807  165.2517 C.ar    1  UNL1        0.0366
     29 C         141.6278  142.1701  167.4348 C.3     1  UNL1        0.0993
     30 N         141.2580  142.1561  168.8883 N.3     1  UNL1       -0.2646
     31 C         140.2384  143.1236  169.4122 C.3     1  UNL1        0.1049
     32 C         139.8685  143.1097  170.8658 C.3     1  UNL1        0.1595
     33 O         140.5183  142.1283  171.7956 O.3     1  UNL1       -0.3508
     34 C         141.5379  141.1608  171.2718 C.3     1  UNL1        0.1595
     35 C         141.9078  141.1747  169.8182 C.3     1  UNL1        0.1049
@<TRIPOS>BOND
     1    20    21    1
     2    21    14    1
     3    14    15   ar
     4    15    16   ar
     5    16    17   ar
     6    17     9    1
     7     9    10   ar
     8    10    11   ar
     9    11    12   ar
    10    12     1    1
    11     1     2    2
    12     1     3   am
    13     3     4    1
    14     4     5    1
    15     5     6    1
    16     6    22    1
    17    22    23    1
    18    23    24   ar
    19    24    25   ar
    20    25    26   ar
    21    26    29    1
    22    29    30    1
    23    30    31    1
    24    31    32    1
    25    32    33    1
    26    33    34    1
    27    34    35    1
    28    26    27   ar
    29    27    28   ar
    30     6     7    1
    31     7     8    1
    32    12    13   ar
    33    17    18   ar
    34    18    19   ar
    35    19    14   ar
    36    13     9   ar
    37     8     3    1
    38    28    23   ar
    39    35    30    1
@<TRIPOS>MOLECULE
*****
 35 39 0 0 0
SMALL
GASTEIGER

@<TRIPOS>ATOM
      1 C         142.9101  139.0398  157.6612 C.2     1  UNL1        0.3045
      2 O         142.8594  140.2563  156.7851 O.2     1  UNL1       -0.2647
      3 N         143.3068  139.1691  159.1020 N.am    1  UNL1       -0.2720
      4 C         143.3575  137.9526  159.9780 C.3     1  UNL1        0.0976
      5 C         143.7543  138.0819  161.4187 C.3     1  UNL1        0.0651
      6 C         144.1004  139.4277  161.9835 C.3     1  UNL1        0.1693
      7 C         144.0497  140.6442  161.1074 C.3     1  UNL1        0.0651
      8 C         143.6529  140.5149  159.6666 C.3     1  UNL1        0.0976
      9 C         142.7319  135.3884  156.3570 C.ar    1  UNL1        0.2501
     10 N         141.3309  135.8574  156.0978 N.ar    1  UNL1       -0.1068
     11 N         141.2271  137.2823  156.5548 N.ar    1  UNL1       -0.1021
     12 C         142.5640  137.6940  157.0964 C.ar    1  UNL1        0.3042
     13 O         143.4940  136.5234  156.9742 O.2     1  UNL1       -0.4122
     14 C         144.3625  131.2949  155.4434 C.ar    1  UNL1        0.1387
     15 C         143.3816  131.9374  154.5080 C.ar    1  UNL1        0.0371
     16 C         142.8381  133.3019  154.8126 C.ar    1  UNL1        0.0078
     17 C         143.2755  134.0239  156.0524 C.ar    1  UNL1        0.0553
     18 C         144.2564  133.3814  156.9878 C.ar    1  UNL1        0.0078
     19 C         144.7999  132.0169  156.6833 C.ar    1  UNL1        0.0371
     20 C         144.6920  129.3230  153.7842 C.3     1  UNL1        0.2525
     21 O         144.9060  129.9304  155.1388 O.3     1  UNL1       -0.4714
     22 O         144.4972  139.5570  163.4243 O.3     1  UNL1       -0.4791
     23 C         143.4436  139.6984  164.4825 C.ar    1  UNL1        0.1384
     24 C         143.5540  138.9192  165.7595 C.ar    1  UNL1        0.0366
     25 C         142.5004  139.0606  166.8178 C.ar    1  UNL1        0.0002
     26 C         141.3365  139.9812  166.5991 C.ar    1  UNL1       -0.0059
     27 C         141.2261  140.7604  165.3221 C.ar    1  UNL1        0.0002
     28 C         142.2797  140.6190  164.2638 C.ar    1  UNL1        0.0366
     29 C         140.2829  140.1226  167.6575 C.3     1  UNL1        0.0993
     30 N         140.4934  141.0665  168.8040 N.3     1  UNL1       -0.2646
     31 C         140.4390  142.5480  168.5755 C.3     1  UNL1        0.1049
     32 C         140.6495  143.4920  169.7220 C.3     1  UNL1        0.1595
     33 O         140.9144  142.9545  171.0971 O.3     1  UNL1       -0.3508
     34 C         140.9688  141.4729  171.3256 C.3     1  UNL1        0.1595
     35 C         140.7583  140.5290  170.1791 C.3     1  UNL1        0.1049
@<TRIPOS>BOND
     1    20    21    1
     2    21    14    1
     3    14    15   ar
     4    15    16   ar
     5    16    17   ar
     6    17     9    1
     7     9    10   ar
     8    10    11   ar
     9    11    12   ar
    10    12     1    1
    11     1     2    2
    12     1     3   am
    13     3     4    1
    14     4     5    1
    15     5     6    1
    16     6    22    1
    17    22    23    1
    18    23    24   ar
    19    24    25   ar
    20    25    26   ar
    21    26    29    1
    22    29    30    1
    23    30    31    1
    24    31    32    1
    25    32    33    1
    26    33    34    1
    27    34    35    1
    28    26    27   ar
    29    27    28   ar
    30     6     7    1
    31     7     8    1
    32    12    13   ar
    33    17    18   ar
    34    18    19   ar
    35    19    14   ar
    36    13     9   ar
    37     8     3    1
    38    28    23   ar
    39    35    30    1
@<TRIPOS>MOLECULE
*****
 35 39 0 0 0
SMALL
GASTEIGER

@<TRIPOS>ATOM
      1 C         142.6166  138.7213  158.6238 C.2     1  UNL1        0.3045
      2 O         143.8461  139.5708  158.4954 O.2     1  UNL1       -0.2647
      3 N         141.5610  139.0765  159.6286 N.am    1  UNL1       -0.2720
      4 C         140.3315  138.2270  159.7569 C.3     1  UNL1        0.0976
      5 C         139.2760  138.5823  160.7617 C.3     1  UNL1        0.0651
      6 C         139.4500  139.7870  161.6382 C.3     1  UNL1        0.1693
      7 C         140.6796  140.6365  161.5098 C.3     1  UNL1        0.0651
      8 C         141.7351  140.2813  160.5050 C.3     1  UNL1        0.0976
      9 C         142.7748  135.3443  156.7167 C.ar    1  UNL1        0.2501
     10 N         141.5748  135.9806  156.0803 N.ar    1  UNL1       -0.1068
     11 N         141.3694  137.3231  156.7172 N.ar    1  UNL1       -0.1021
     12 C         142.4425  137.5165  157.7473 C.ar    1  UNL1        0.3042
     13 O         143.3111  136.2935  157.7470 O.2     1  UNL1       -0.4122
     14 C         144.4687  131.2982  155.7117 C.ar    1  UNL1        0.1387
     15 C         144.9174  132.0121  156.9523 C.ar    1  UNL1        0.0371
     16 C         144.3528  133.3608  157.2873 C.ar    1  UNL1        0.0078
     17 C         143.3394  133.9956  156.3817 C.ar    1  UNL1        0.0553
     18 C         142.8907  133.2818  155.1412 C.ar    1  UNL1        0.0078
     19 C         143.4553  131.9331  154.8062 C.ar    1  UNL1        0.0371
     20 C         144.3323  128.7069  155.8399 C.3     1  UNL1        0.2525
     21 O         145.0333  129.9495  155.3767 O.3     1  UNL1       -0.4714
     22 O         138.3945  140.1423  162.6430 O.3     1  UNL1       -0.4791
     23 C         138.7302  140.1726  164.1046 C.ar    1  UNL1        0.1384
     24 C         139.2921  141.4202  164.7193 C.ar    1  UNL1        0.0366
     25 C         139.6279  141.4505  166.1809 C.ar    1  UNL1        0.0002
     26 C         139.4018  140.2333  167.0278 C.ar    1  UNL1       -0.0059
     27 C         138.8400  138.9857  166.4131 C.ar    1  UNL1        0.0002
     28 C         138.5042  138.9554  164.9515 C.ar    1  UNL1        0.0366
     29 C         139.7376  140.2636  168.4895 C.3     1  UNL1        0.0993
     30 N         140.7833  141.2104  168.9993 N.3     1  UNL1       -0.2646
     31 C         142.2260  140.7996  169.0095 C.3     1  UNL1        0.1049
     32 C         143.2718  141.7464  169.5193 C.3     1  UNL1        0.1595
     33 O         142.8749  143.1039  170.0190 O.3     1  UNL1       -0.3508
     34 C         141.4323  143.5146  170.0088 C.3     1  UNL1        0.1595
     35 C         140.3865  142.5679  169.4990 C.3     1  UNL1        0.1049
@<TRIPOS>BOND
     1    20    21    1
     2    21    14    1
     3    14    15   ar
     4    15    16   ar
     5    16    17   ar
     6    17     9    1
     7     9    10   ar
     8    10    11   ar
     9    11    12   ar
    10    12     1    1
    11     1     2    2
    12     1     3   am
    13     3     4    1
    14     4     5    1
    15     5     6    1
    16     6    22    1
    17    22    23    1
    18    23    24   ar
    19    24    25   ar
    20    25    26   ar
    21    26    29    1
    22    29    30    1
    23    30    31    1
    24    31    32    1
    25    32    33    1
    26    33    34    1
    27    34    35    1
    28    26    27   ar
    29    27    28   ar
    30     6     7    1
    31     7     8    1
    32    12    13   ar
    33    17    18   ar
    34    18    19   ar
    35    19    14   ar
    36    13     9   ar
    37     8     3    1
    38    28    23   ar
    39    35    30    1
@<TRIPOS>MOLECULE
*****
 35 39 0 0 0
SMALL
GASTEIGER

@<TRIPOS>ATOM
      1 C         138.7110  139.0699  161.3157 C.2     1  UNL1        0.3045
      2 O         137.3988  139.5490  160.7692 O.2     1  UNL1       -0.2647
      3 N         139.8298  138.7191  160.3801 N.am    1  UNL1       -0.2720
      4 C         141.1420  138.2399  160.9266 C.3     1  UNL1        0.0976
      5 C         142.2608  137.8891  159.9911 C.3     1  UNL1        0.0651
      6 C         142.0674  138.0174  158.5092 C.3     1  UNL1        0.1693
      7 C         140.7553  138.4965  157.9628 C.3     1  UNL1        0.0651
      8 C         139.6364  138.8474  158.8983 C.3     1  UNL1        0.0976
      9 C         139.3243  139.4827  165.1260 C.ar    1  UNL1        0.2501
     10 N         139.0796  138.0059  165.0301 N.ar    1  UNL1       -0.1068
     11 N         138.8200  137.6715  163.5911 N.ar    1  UNL1       -0.1021
     12 C         138.9044  138.9416  162.7976 C.ar    1  UNL1        0.3042
     13 O         139.2160  140.0610  163.7462 O.2     1  UNL1       -0.4122
     14 C         140.2251  141.7756  168.8918 C.ar    1  UNL1        0.1387
     15 C         140.6231  142.3365  167.5589 C.ar    1  UNL1        0.0371
     16 C         140.3228  141.5723  166.3036 C.ar    1  UNL1        0.0078
     17 C         139.6246  140.2470  166.3813 C.ar    1  UNL1        0.0553
     18 C         139.2266  139.6860  167.7143 C.ar    1  UNL1        0.0078
     19 C         139.5269  140.4503  168.9696 C.ar    1  UNL1        0.0371
     20 C         141.4766  141.9747  171.1599 C.3     1  UNL1        0.2525
     21 O         140.5254  142.5398  170.1471 O.3     1  UNL1       -0.4714
     22 O         143.1863  137.6665  157.5737 O.3     1  UNL1       -0.4791
     23 C         143.0862  136.4443  156.7099 C.ar    1  UNL1        0.1384
     24 C         143.2810  135.0836  157.3103 C.ar    1  UNL1        0.0366
     25 C         143.1810  133.8614  156.4465 C.ar    1  UNL1        0.0002
     26 C         142.8862  133.9999  154.9823 C.ar    1  UNL1       -0.0059
     27 C         142.6915  135.3606  154.3818 C.ar    1  UNL1        0.0002
     28 C         142.7915  136.5828  155.2456 C.ar    1  UNL1        0.0366
     29 C         142.7862  132.7776  154.1185 C.3     1  UNL1        0.0993
     30 N         142.9885  131.4173  154.7173 N.3     1  UNL1       -0.2646
     31 C         144.3737  130.8604  154.8629 C.3     1  UNL1        0.1049
     32 C         144.5761  129.5002  155.4617 C.3     1  UNL1        0.1595
     33 O         143.3933  128.6968  155.9150 O.3     1  UNL1       -0.3508
     34 C         142.0081  129.2536  155.7695 C.3     1  UNL1        0.1595
     35 C         141.8057  130.6139  155.1706 C.3     1  UNL1        0.1049
@<TRIPOS>BOND
     1    20    21    1
     2    21    14    1
     3    14    15   ar
     4    15    16   ar
     5    16    17   ar
     6    17     9    1
     7     9    10   ar
     8    10    11   ar
     9    11    12   ar
    10    12     1    1
    11     1     2    2
    12     1     3   am
    13     3     4    1
    14     4     5    1
    15     5     6    1
    16     6    22    1
    17    22    23    1
    18    23    24   ar
    19    24    25   ar
    20    25    26   ar
    21    26    29    1
    22    29    30    1
    23    30    31    1
    24    31    32    1
    25    32    33    1
    26    33    34    1
    27    34    35    1
    28    26    27   ar
    29    27    28   ar
    30     6     7    1
    31     7     8    1
    32    12    13   ar
    33    17    18   ar
    34    18    19   ar
    35    19    14   ar
    36    13     9   ar
    37     8     3    1
    38    28    23   ar
    39    35    30    1
@<TRIPOS>MOLECULE
*****
 35 39 0 0 0
SMALL
GASTEIGER

@<TRIPOS>ATOM
      1 C         139.1706  139.6794  159.7397 C.2     1  UNL1        0.3045
      2 O         137.8339  139.8899  159.0924 O.2     1  UNL1       -0.2647
      3 N         140.2301  138.8875  159.0323 N.am    1  UNL1       -0.2720
      4 C         141.5667  138.6769  159.6796 C.3     1  UNL1        0.0976
      5 C         142.6262  137.8851  158.9723 C.3     1  UNL1        0.0651
      6 C         142.3490  137.3037  157.6176 C.3     1  UNL1        0.1693
      7 C         141.0124  137.5143  156.9703 C.3     1  UNL1        0.0651
      8 C         139.9529  138.3062  157.6777 C.3     1  UNL1        0.0976
      9 C         139.5564  140.5570  163.5009 C.ar    1  UNL1        0.2501
     10 N         140.1919  141.7536  162.8573 N.ar    1  UNL1       -0.1068
     11 N         140.1247  141.5705  161.3700 N.ar    1  UNL1       -0.1021
     12 C         139.4477  140.2607  161.0944 C.ar    1  UNL1        0.3042
     13 O         139.0964  139.6343  162.4113 O.2     1  UNL1       -0.4122
     14 C         139.1083  139.8577  167.9236 C.ar    1  UNL1        0.1387
     15 C         140.0681  140.8955  167.4218 C.ar    1  UNL1        0.0371
     16 C         140.2174  141.1286  165.9475 C.ar    1  UNL1        0.0078
     17 C         139.4070  140.3239  164.9751 C.ar    1  UNL1        0.0553
     18 C         138.4473  139.2861  165.4769 C.ar    1  UNL1        0.0078
     19 C         138.2979  139.0530  166.9511 C.ar    1  UNL1        0.0371
     20 C         139.9609  140.2014  170.3536 C.3     1  UNL1        0.2525
     21 O         138.9590  139.6247  169.3978 O.3     1  UNL1       -0.4714
     22 O         143.4085  136.5119  156.9102 O.3     1  UNL1       -0.4791
     23 C         143.1303  135.1015  156.4818 C.ar    1  UNL1        0.1384
     24 C         142.6156  134.8250  155.1003 C.ar    1  UNL1        0.0366
     25 C         142.3373  133.4147  154.6720 C.ar    1  UNL1        0.0002
     26 C         142.5738  132.2808  155.6252 C.ar    1  UNL1       -0.0059
     27 C         143.0885  132.5574  157.0067 C.ar    1  UNL1        0.0002
     28 C         143.3667  133.9677  157.4350 C.ar    1  UNL1        0.0366
     29 C         142.2955  130.8704  155.1968 C.3     1  UNL1        0.0993
     30 N         143.4277  129.9691  154.8025 N.3     1  UNL1       -0.2646
     31 C         144.0629  129.0723  155.8234 C.3     1  UNL1        0.1049
     32 C         145.1951  128.1709  155.4291 C.3     1  UNL1        0.1595
     33 O         145.6922  128.1663  154.0139 O.3     1  UNL1       -0.3508
     34 C         145.0570  129.0631  152.9930 C.3     1  UNL1        0.1595
     35 C         143.9247  129.9645  153.3872 C.3     1  UNL1        0.1049
@<TRIPOS>BOND
     1    20    21    1
     2    21    14    1
     3    14    15   ar
     4    15    16   ar
     5    16    17   ar
     6    17     9    1
     7     9    10   ar
     8    10    11   ar
     9    11    12   ar
    10    12     1    1
    11     1     2    2
    12     1     3   am
    13     3     4    1
    14     4     5    1
    15     5     6    1
    16     6    22    1
    17    22    23    1
    18    23    24   ar
    19    24    25   ar
    20    25    26   ar
    21    26    29    1
    22    29    30    1
    23    30    31    1
    24    31    32    1
    25    32    33    1
    26    33    34    1
    27    34    35    1
    28    26    27   ar
    29    27    28   ar
    30     6     7    1
    31     7     8    1
    32    12    13   ar
    33    17    18   ar
    34    18    19   ar
    35    19    14   ar
    36    13     9   ar
    37     8     3    1
    38    28    23   ar
    39    35    30    1
@<TRIPOS>MOLECULE
*****
 35 39 0 0 0
SMALL
GASTEIGER

@<TRIPOS>ATOM
      1 C         138.5438  139.6618  161.3978 C.2     1  UNL1        0.3045
      2 O         137.2712  140.4246  161.1776 O.2     1  UNL1       -0.2647
      3 N         139.4749  139.4087  160.2493 N.am    1  UNL1       -0.2720
      4 C         140.7475  138.6459  160.4695 C.3     1  UNL1        0.0976
      5 C         141.6786  138.3928  159.3211 C.3     1  UNL1        0.0651
      6 C         141.3371  138.9026  157.9524 C.3     1  UNL1        0.1693
      7 C         140.0645  139.6654  157.7321 C.3     1  UNL1        0.0651
      8 C         139.1334  139.9185  158.8806 C.3     1  UNL1        0.0976
      9 C         139.6654  139.0472  165.0625 C.ar    1  UNL1        0.2501
     10 N         139.1564  137.6880  164.6833 N.ar    1  UNL1       -0.1068
     11 N         138.6744  137.7528  163.2643 N.ar    1  UNL1       -0.1021
     12 C         138.8853  139.1520  162.7666 C.ar    1  UNL1        0.3042
     13 O         139.4978  139.9519  163.8779 O.2     1  UNL1       -0.4122
     14 C         141.3916  140.2066  169.0532 C.ar    1  UNL1        0.1387
     15 C         139.9045  140.1747  168.8600 C.ar    1  UNL1        0.0371
     16 C         139.3291  139.7882  167.5298 C.ar    1  UNL1        0.0078
     17 C         140.2408  139.4336  166.3927 C.ar    1  UNL1        0.0553
     18 C         141.7279  139.4655  166.5859 C.ar    1  UNL1        0.0078
     19 C         142.3034  139.8520  167.9161 C.ar    1  UNL1        0.0371
     20 C         141.7010  141.9571  170.9479 C.3     1  UNL1        0.2525
     21 O         141.9671  140.5931  170.3834 O.3     1  UNL1       -0.4714
     22 O         142.2682  138.6495  156.8038 O.3     1  UNL1       -0.4791
     23 C         142.3480  137.2832  156.1901 C.ar    1  UNL1        0.1384
     24 C         143.6851  136.6583  155.9224 C.ar    1  UNL1        0.0366
     25 C         143.7650  135.2920  155.3087 C.ar    1  UNL1        0.0002
     26 C         142.5078  134.5505  154.9627 C.ar    1  UNL1       -0.0059
     27 C         141.1707  135.1753  155.2305 C.ar    1  UNL1        0.0002
     28 C         141.0908  136.5417  155.8442 C.ar    1  UNL1        0.0366
     29 C         142.5878  133.1840  154.3490 C.3     1  UNL1        0.0993
     30 N         143.1566  132.0406  155.1356 N.3     1  UNL1       -0.2646
     31 C         142.8075  131.8807  156.5857 C.3     1  UNL1        0.1049
     32 C         143.3763  130.7373  157.3724 C.3     1  UNL1        0.1595
     33 O         144.2942  129.7537  156.7091 O.3     1  UNL1       -0.3508
     34 C         144.6433  129.9136  155.2590 C.3     1  UNL1        0.1595
     35 C         144.0745  131.0570  154.4723 C.3     1  UNL1        0.1049
@<TRIPOS>BOND
     1    20    21    1
     2    21    14    1
     3    14    15   ar
     4    15    16   ar
     5    16    17   ar
     6    17     9    1
     7     9    10   ar
     8    10    11   ar
     9    11    12   ar
    10    12     1    1
    11     1     2    2
    12     1     3   am
    13     3     4    1
    14     4     5    1
    15     5     6    1
    16     6    22    1
    17    22    23    1
    18    23    24   ar
    19    24    25   ar
    20    25    26   ar
    21    26    29    1
    22    29    30    1
    23    30    31    1
    24    31    32    1
    25    32    33    1
    26    33    34    1
    27    34    35    1
    28    26    27   ar
    29    27    28   ar
    30     6     7    1
    31     7     8    1
    32    12    13   ar
    33    17    18   ar
    34    18    19   ar
    35    19    14   ar
    36    13     9   ar
    37     8     3    1
    38    28    23   ar
    39    35    30    1
@<TRIPOS>MOLECULE
*****
 35 39 0 0 0
SMALL
GASTEIGER

@<TRIPOS>ATOM
      1 C         142.1422  144.0716  160.2760 C.2     1  UNL1        0.3045
      2 O         141.1729  145.1582  159.9161 O.2     1  UNL1       -0.2647
      3 N         142.6326  143.1243  159.2214 N.am    1  UNL1       -0.2720
      4 C         143.6019  142.0377  159.5814 C.3     1  UNL1        0.0976
      5 C         144.0922  141.0904  158.5268 C.3     1  UNL1        0.0651
      6 C         143.6132  141.2297  157.1122 C.3     1  UNL1        0.1693
      7 C         142.6438  142.3163  156.7522 C.3     1  UNL1        0.0651
      8 C         142.1535  143.2636  157.8069 C.3     1  UNL1        0.0976
      9 C         142.7063  143.3996  164.0570 C.ar    1  UNL1        0.2501
     10 N         144.0105  144.0363  163.6780 N.ar    1  UNL1       -0.1068
     11 N         143.9580  144.3655  162.2155 N.ar    1  UNL1       -0.1021
     12 C         142.6213  143.9323  161.6906 C.ar    1  UNL1        0.3042
     13 O         141.8477  143.3353  162.8287 O.2     1  UNL1       -0.4122
     14 C         141.5691  141.9388  168.1586 C.ar    1  UNL1        0.1387
     15 C         140.5024  142.3287  167.1788 C.ar    1  UNL1        0.0371
     16 C         140.8815  142.8157  165.8116 C.ar    1  UNL1        0.0078
     17 C         142.3273  142.9126  165.4242 C.ar    1  UNL1        0.0553
     18 C         143.3940  142.5227  166.4039 C.ar    1  UNL1        0.0078
     19 C         143.0150  142.0357  167.7711 C.ar    1  UNL1        0.0371
     20 C         139.7921  141.6504  170.0317 C.3     1  UNL1        0.2525
     21 O         141.1901  141.4518  169.5257 O.3     1  UNL1       -0.4714
     22 O         144.1035  140.2824  156.0576 O.3     1  UNL1       -0.4791
     23 C         143.6613  138.8492  156.0726 C.ar    1  UNL1        0.1384
     24 C         144.4780  137.8049  155.3709 C.ar    1  UNL1        0.0366
     25 C         144.0358  136.3717  155.3860 C.ar    1  UNL1        0.0002
     26 C         142.7769  135.9827  156.1028 C.ar    1  UNL1       -0.0059
     27 C         141.9601  137.0269  156.8045 C.ar    1  UNL1        0.0002
     28 C         142.4023  138.4602  156.7894 C.ar    1  UNL1        0.0366
     29 C         142.3347  134.5493  156.1178 C.3     1  UNL1        0.0993
     30 N         143.3272  133.4612  156.4018 N.3     1  UNL1       -0.2646
     31 C         144.1177  133.4812  157.6765 C.3     1  UNL1        0.1049
     32 C         145.1102  132.3930  157.9606 C.3     1  UNL1        0.1595
     33 O         145.3122  131.2848  156.9701 O.3     1  UNL1       -0.3508
     34 C         144.5217  131.2648  155.6955 C.3     1  UNL1        0.1595
     35 C         143.5291  132.3530  155.4113 C.3     1  UNL1        0.1049
@<TRIPOS>BOND
     1    20    21    1
     2    21    14    1
     3    14    15   ar
     4    15    16   ar
     5    16    17   ar
     6    17     9    1
     7     9    10   ar
     8    10    11   ar
     9    11    12   ar
    10    12     1    1
    11     1     2    2
    12     1     3   am
    13     3     4    1
    14     4     5    1
    15     5     6    1
    16     6    22    1
    17    22    23    1
    18    23    24   ar
    19    24    25   ar
    20    25    26   ar
    21    26    29    1
    22    29    30    1
    23    30    31    1
    24    31    32    1
    25    32    33    1
    26    33    34    1
    27    34    35    1
    28    26    27   ar
    29    27    28   ar
    30     6     7    1
    31     7     8    1
    32    12    13   ar
    33    17    18   ar
    34    18    19   ar
    35    19    14   ar
    36    13     9   ar
    37     8     3    1
    38    28    23   ar
    39    35    30    1
@<TRIPOS>MOLECULE
*****
 35 39 0 0 0
SMALL
GASTEIGER

@<TRIPOS>ATOM
      1 C         139.7583  139.0767  157.6184 C.2     1  UNL1        0.3045
      2 O         138.6459  139.1379  156.6141 O.2     1  UNL1       -0.2647
      3 N         139.6388  139.8193  158.9162 N.am    1  UNL1       -0.2720
      4 C         140.7512  139.7581  159.9206 C.3     1  UNL1        0.0976
      5 C         140.6317  140.5007  161.2183 C.3     1  UNL1        0.0651
      6 C         139.3998  141.3046  161.5117 C.3     1  UNL1        0.1693
      7 C         138.2873  141.3658  160.5073 C.3     1  UNL1        0.0651
      8 C         138.4069  140.6231  159.2096 C.3     1  UNL1        0.0976
      9 C         142.4647  136.4212  156.7880 C.ar    1  UNL1        0.2501
     10 N         143.3074  137.6503  156.9588 N.ar    1  UNL1       -0.1068
     11 N         142.3961  138.7947  157.2907 N.ar    1  UNL1       -0.1021
     12 C         140.9903  138.2728  157.3250 C.ar    1  UNL1        0.3042
     13 O         141.0326  136.8060  157.0143 O.2     1  UNL1       -0.4122
     14 C         143.9686  132.3028  155.7746 C.ar    1  UNL1        0.1387
     15 C         144.2462  132.8911  157.1262 C.ar    1  UNL1        0.0371
     16 C         143.7448  134.2639  157.4640 C.ar    1  UNL1        0.0078
     17 C         142.9660  135.0484  156.4502 C.ar    1  UNL1        0.0553
     18 C         142.6885  134.4601  155.0986 C.ar    1  UNL1        0.0078
     19 C         143.1898  133.0873  154.7608 C.ar    1  UNL1        0.0371
     20 C         143.5294  129.9051  154.8756 C.3     1  UNL1        0.2525
     21 O         144.4699  130.9300  155.4368 O.3     1  UNL1       -0.4714
     22 O         139.2802  142.0472  162.8095 O.3     1  UNL1       -0.4791
     23 C         140.0959  141.6225  163.9945 C.ar    1  UNL1        0.1384
     24 C         141.3510  142.3650  164.3460 C.ar    1  UNL1        0.0366
     25 C         142.1666  141.9403  165.5310 C.ar    1  UNL1        0.0002
     26 C         141.7272  140.7731  166.3645 C.ar    1  UNL1       -0.0059
     27 C         140.4722  140.0306  166.0130 C.ar    1  UNL1        0.0002
     28 C         139.6565  140.4553  164.8280 C.ar    1  UNL1        0.0366
     29 C         142.5430  140.3484  167.5496 C.3     1  UNL1        0.0993
     30 N         142.3074  140.9825  168.8884 N.3     1  UNL1       -0.2646
     31 C         142.9865  142.2739  169.2365 C.3     1  UNL1        0.1049
     32 C         142.7509  142.9080  170.5753 C.3     1  UNL1        0.1595
     33 O         141.8363  142.2507  171.5660 O.3     1  UNL1       -0.3508
     34 C         141.1573  140.9593  171.2179 C.3     1  UNL1        0.1595
     35 C         141.3928  140.3252  169.8791 C.3     1  UNL1        0.1049
@<TRIPOS>BOND
     1    20    21    1
     2    21    14    1
     3    14    15   ar
     4    15    16   ar
     5    16    17   ar
     6    17     9    1
     7     9    10   ar
     8    10    11   ar
     9    11    12   ar
    10    12     1    1
    11     1     2    2
    12     1     3   am
    13     3     4    1
    14     4     5    1
    15     5     6    1
    16     6    22    1
    17    22    23    1
    18    23    24   ar
    19    24    25   ar
    20    25    26   ar
    21    26    29    1
    22    29    30    1
    23    30    31    1
    24    31    32    1
    25    32    33    1
    26    33    34    1
    27    34    35    1
    28    26    27   ar
    29    27    28   ar
    30     6     7    1
    31     7     8    1
    32    12    13   ar
    33    17    18   ar
    34    18    19   ar
    35    19    14   ar
    36    13     9   ar
    37     8     3    1
    38    28    23   ar
    39    35    30    1
