@<TRIPOS>MOLECULE
*****
 25 28 0 0 0
SMALL
GASTEIGER

@<TRIPOS>ATOM
      1 N         141.4632  137.7344  162.7243 N.3     1  UNL1       -0.2665
      2 C         142.8894  138.0199  162.3574 C.3     1  UNL1        0.0899
      3 C         143.2186  138.5772  161.0043 C.3     1  UNL1        0.0900
      4 N         142.1216  138.8491  160.0180 N.3     1  UNL1       -0.2624
      5 C         140.6955  138.5636  160.3848 C.3     1  UNL1        0.0900
      6 C         140.3662  138.0063  161.7380 C.3     1  UNL1        0.0899
      7 C         141.1340  137.1770  164.0774 C.3     1  UNL1        0.0992
      8 C         138.7893  139.6472  167.0187 C.ar    1  UNL1       -0.0000
      9 C         140.2527  139.9083  166.8184 C.ar    1  UNL1       -0.0003
     10 C         141.0343  139.0850  165.8380 C.ar    1  UNL1       -0.0029
     11 C         140.3524  138.0004  165.0578 C.ar    1  UNL1       -0.0061
     12 C         138.8890  137.7392  165.2580 C.ar    1  UNL1       -0.0029
     13 C         138.1074  138.5626  166.2385 C.ar    1  UNL1       -0.0003
     14 C         142.4509  139.4065  158.6648 C.3     1  UNL1        0.1604
     15 C         142.9763  138.5028  157.5891 C.ar    1  UNL1        0.2426
     16 N         144.0222  138.8562  156.5737 N.ar    1  UNL1       -0.1099
     17 N         144.2403  137.6589  155.6968 N.ar    1  UNL1       -0.1072
     18 C         143.3292  136.5654  156.1703 C.ar    1  UNL1        0.2496
     19 O         142.5479  137.0870  157.3398 O.2     1  UNL1       -0.4181
     20 C         143.2186  135.1917  155.5783 C.ar    1  UNL1        0.0551
     21 C         143.8935  134.0306  156.2464 C.ar    1  UNL1        0.0047
     22 C         143.7830  132.6568  155.6543 C.ar    1  UNL1        0.0002
     23 C         142.9976  132.4442  154.3942 C.ar    1  UNL1        0.0000
     24 C         142.3227  133.6052  153.7261 C.ar    1  UNL1        0.0002
     25 C         142.4332  134.9790  154.3181 C.ar    1  UNL1        0.0047
@<TRIPOS>BOND
     1     8     9   ar
     2     9    10   ar
     3    10    11   ar
     4    11     7    1
     5     7     1    1
     6     1     2    1
     7     2     3    1
     8     3     4    1
     9     4    14    1
    10    14    15    1
    11    15    16   ar
    12    16    17   ar
    13    17    18   ar
    14    18    20    1
    15    20    21   ar
    16    21    22   ar
    17    22    23   ar
    18    23    24   ar
    19    24    25   ar
    20    18    19   ar
    21     4     5    1
    22     5     6    1
    23    11    12   ar
    24    12    13   ar
    25    13     8   ar
    26     6     1    1
    27    19    15   ar
    28    25    20   ar
@<TRIPOS>MOLECULE
*****
 25 28 0 0 0
SMALL
GASTEIGER

@<TRIPOS>ATOM
      1 N         139.8607  137.8582  161.9891 N.3     1  UNL1       -0.2665
      2 C         139.1729  138.2936  160.7292 C.3     1  UNL1        0.0899
      3 C         139.9751  138.5575  159.4895 C.3     1  UNL1        0.0900
      4 N         141.4651  138.3861  159.5097 N.3     1  UNL1       -0.2624
      5 C         142.1530  137.9507  160.7696 C.3     1  UNL1        0.0900
      6 C         141.3508  137.6868  162.0093 C.3     1  UNL1        0.0899
      7 C         139.0585  137.5943  163.2288 C.3     1  UNL1        0.0992
      8 C         139.3120  140.4247  166.7179 C.ar    1  UNL1       -0.0000
      9 C         139.9429  140.7913  165.4074 C.ar    1  UNL1       -0.0003
     10 C         139.8584  139.8479  164.2444 C.ar    1  UNL1       -0.0029
     11 C         139.1430  138.5378  164.3918 C.ar    1  UNL1       -0.0061
     12 C         138.5121  138.1712  165.7024 C.ar    1  UNL1       -0.0029
     13 C         138.5966  139.1147  166.8654 C.ar    1  UNL1       -0.0003
     14 C         142.2673  138.6500  158.2700 C.3     1  UNL1        0.1604
     15 C         142.6716  137.5110  157.3816 C.ar    1  UNL1        0.2426
     16 N         142.7665  137.5509  155.8852 N.ar    1  UNL1       -0.1099
     17 N         143.2055  136.1967  155.4124 N.ar    1  UNL1       -0.1072
     18 C         143.3818  135.3199  156.6166 C.ar    1  UNL1        0.2496
     19 O         143.0519  136.1323  157.8337 O.2     1  UNL1       -0.4181
     20 C         143.8126  133.8831  156.6057 C.ar    1  UNL1        0.0551
     21 C         143.5862  133.0416  155.3849 C.ar    1  UNL1        0.0047
     22 C         144.0169  131.6048  155.3740 C.ar    1  UNL1        0.0002
     23 C         144.6740  131.0096  156.5839 C.ar    1  UNL1        0.0000
     24 C         144.9004  131.8512  157.8048 C.ar    1  UNL1        0.0002
     25 C         144.4696  133.2879  157.8157 C.ar    1  UNL1        0.0047
@<TRIPOS>BOND
     1     8     9   ar
     2     9    10   ar
     3    10    11   ar
     4    11     7    1
     5     7     1    1
     6     1     2    1
     7     2     3    1
     8     3     4    1
     9     4    14    1
    10    14    15    1
    11    15    16   ar
    12    16    17   ar
    13    17    18   ar
    14    18    20    1
    15    20    21   ar
    16    21    22   ar
    17    22    23   ar
    18    23    24   ar
    19    24    25   ar
    20    18    19   ar
    21     4     5    1
    22     5     6    1
    23    11    12   ar
    24    12    13   ar
    25    13     8   ar
    26     6     1    1
    27    19    15   ar
    28    25    20   ar
@<TRIPOS>MOLECULE
*****
 25 28 0 0 0
SMALL
GASTEIGER

@<TRIPOS>ATOM
      1 N         140.0685  142.5498  165.1839 N.3     1  UNL1       -0.2665
      2 C         138.8288  142.6128  164.3417 C.3     1  UNL1        0.0899
      3 C         138.6765  143.6918  163.3109 C.3     1  UNL1        0.0900
      4 N         139.7638  144.7078  163.1222 N.3     1  UNL1       -0.2624
      5 C         141.0034  144.6448  163.9644 C.3     1  UNL1        0.0900
      6 C         141.1558  143.5658  164.9952 C.3     1  UNL1        0.0899
      7 C         140.2208  141.4709  166.2147 C.3     1  UNL1        0.0992
      8 C         138.9100  137.2680  165.2834 C.ar    1  UNL1       -0.0000
      9 C         138.1005  138.1162  166.2188 C.ar    1  UNL1       -0.0003
     10 C         138.5374  139.5172  166.5293 C.ar    1  UNL1       -0.0029
     11 C         139.7839  140.0699  165.9043 C.ar    1  UNL1       -0.0061
     12 C         140.5935  139.2217  164.9688 C.ar    1  UNL1       -0.0029
     13 C         140.1565  137.8207  164.6584 C.ar    1  UNL1       -0.0003
     14 C         139.6114  145.7868  162.0913 C.3     1  UNL1        0.1604
     15 C         140.2882  145.6526  160.7595 C.ar    1  UNL1        0.2426
     16 N         141.6237  145.0171  160.5093 N.ar    1  UNL1       -0.1099
     17 N         141.9093  145.1021  159.0392 N.ar    1  UNL1       -0.1072
     18 C         140.7504  145.7901  158.3808 C.ar    1  UNL1        0.2496
     19 O         139.7485  146.1304  159.4440 O.2     1  UNL1       -0.4181
     20 C         140.6168  146.0860  156.9164 C.ar    1  UNL1        0.0551
     21 C         141.5661  145.4637  155.9359 C.ar    1  UNL1        0.0047
     22 C         141.4325  145.7595  154.4714 C.ar    1  UNL1        0.0002
     23 C         140.3496  146.6777  153.9875 C.ar    1  UNL1        0.0000
     24 C         139.4002  147.3001  154.9680 C.ar    1  UNL1        0.0002
     25 C         139.5338  147.0042  156.4325 C.ar    1  UNL1        0.0047
@<TRIPOS>BOND
     1     8     9   ar
     2     9    10   ar
     3    10    11   ar
     4    11     7    1
     5     7     1    1
     6     1     2    1
     7     2     3    1
     8     3     4    1
     9     4    14    1
    10    14    15    1
    11    15    16   ar
    12    16    17   ar
    13    17    18   ar
    14    18    20    1
    15    20    21   ar
    16    21    22   ar
    17    22    23   ar
    18    23    24   ar
    19    24    25   ar
    20    18    19   ar
    21     4     5    1
    22     5     6    1
    23    11    12   ar
    24    12    13   ar
    25    13     8   ar
    26     6     1    1
    27    19    15   ar
    28    25    20   ar
@<TRIPOS>MOLECULE
*****
 25 28 0 0 0
SMALL
GASTEIGER

@<TRIPOS>ATOM
      1 N         144.3945  140.3847  161.9716 N.3     1  UNL1       -0.2665
      2 C         144.0892  138.9662  161.5908 C.3     1  UNL1        0.0899
      3 C         143.5153  138.6594  160.2393 C.3     1  UNL1        0.0900
      4 N         143.2466  139.7710  159.2686 N.3     1  UNL1       -0.2624
      5 C         143.5519  141.1894  159.6494 C.3     1  UNL1        0.0900
      6 C         144.1258  141.4962  161.0009 C.3     1  UNL1        0.0899
      7 C         144.9684  140.6915  163.3230 C.3     1  UNL1        0.0992
      8 C         142.6060  139.7536  167.0365 C.ar    1  UNL1       -0.0000
      9 C         142.6625  141.1603  166.5189 C.ar    1  UNL1       -0.0003
     10 C         143.4500  141.4729  165.2810 C.ar    1  UNL1       -0.0029
     11 C         144.1809  140.3789  164.5609 C.ar    1  UNL1       -0.0061
     12 C         144.1244  138.9722  165.0785 C.ar    1  UNL1       -0.0029
     13 C         143.3370  138.6596  166.3163 C.ar    1  UNL1       -0.0003
     14 C         142.6727  139.4641  157.9171 C.3     1  UNL1        0.1604
     15 C         143.0835  138.2161  157.1936 C.ar    1  UNL1        0.2426
     16 N         144.0990  138.1287  156.0932 N.ar    1  UNL1       -0.1099
     17 N         144.1941  136.6949  155.6629 N.ar    1  UNL1       -0.1072
     18 C         143.2373  135.8961  156.4975 C.ar    1  UNL1        0.2496
     19 O         142.5509  136.8362  157.4435 O.2     1  UNL1       -0.4181
     20 C         143.0073  134.4169  156.4027 C.ar    1  UNL1        0.0551
     21 C         141.8992  133.8837  155.5438 C.ar    1  UNL1        0.0047
     22 C         141.6692  132.4045  155.4489 C.ar    1  UNL1        0.0002
     23 C         142.5474  131.4584  156.2131 C.ar    1  UNL1        0.0000
     24 C         143.6555  131.9916  157.0720 C.ar    1  UNL1        0.0002
     25 C         143.8855  133.4708  157.1668 C.ar    1  UNL1        0.0047
@<TRIPOS>BOND
     1     8     9   ar
     2     9    10   ar
     3    10    11   ar
     4    11     7    1
     5     7     1    1
     6     1     2    1
     7     2     3    1
     8     3     4    1
     9     4    14    1
    10    14    15    1
    11    15    16   ar
    12    16    17   ar
    13    17    18   ar
    14    18    20    1
    15    20    21   ar
    16    21    22   ar
    17    22    23   ar
    18    23    24   ar
    19    24    25   ar
    20    18    19   ar
    21     4     5    1
    22     5     6    1
    23    11    12   ar
    24    12    13   ar
    25    13     8   ar
    26     6     1    1
    27    19    15   ar
    28    25    20   ar
@<TRIPOS>MOLECULE
*****
 25 28 0 0 0
SMALL
GASTEIGER

@<TRIPOS>ATOM
      1 N         140.8953  138.9126  161.2961 N.3     1  UNL1       -0.2665
      2 C         141.4437  137.8560  162.2088 C.3     1  UNL1        0.0899
      3 C         140.7062  137.4920  163.4632 C.3     1  UNL1        0.0900
      4 N         139.4202  138.1845  163.8050 N.3     1  UNL1       -0.2624
      5 C         138.8718  139.2410  162.8924 C.3     1  UNL1        0.0900
      6 C         139.6093  139.6051  161.6379 C.3     1  UNL1        0.0899
      7 C         141.6328  139.2767  160.0418 C.3     1  UNL1        0.0992
      8 C         141.1293  136.7814  156.3310 C.ar    1  UNL1       -0.0000
      9 C         139.9798  137.5927  156.8509 C.ar    1  UNL1       -0.0003
     10 C         140.1476  138.4245  158.0878 C.ar    1  UNL1       -0.0029
     11 C         141.4649  138.4449  158.8048 C.ar    1  UNL1       -0.0061
     12 C         142.6144  137.6336  158.2849 C.ar    1  UNL1       -0.0029
     13 C         142.4466  136.8018  157.0480 C.ar    1  UNL1       -0.0003
     14 C         138.6827  137.8204  165.0594 C.3     1  UNL1        0.1604
     15 C         138.9108  138.6041  166.3178 C.ar    1  UNL1        0.2426
     16 N         137.9858  138.6674  167.4969 N.ar    1  UNL1       -0.1099
     17 N         138.6072  139.5647  168.5259 N.ar    1  UNL1       -0.1072
     18 C         139.9163  140.0559  167.9828 C.ar    1  UNL1        0.2496
     19 O         140.1039  139.4623  166.6181 O.2     1  UNL1       -0.4181
     20 C         140.8702  140.9788  168.6816 C.ar    1  UNL1        0.0551
     21 C         140.4305  142.3599  169.0677 C.ar    1  UNL1        0.0047
     22 C         141.3844  143.2827  169.7665 C.ar    1  UNL1        0.0002
     23 C         142.7781  142.8244  170.0792 C.ar    1  UNL1        0.0000
     24 C         143.2178  141.4433  169.6931 C.ar    1  UNL1        0.0002
     25 C         142.2638  140.5205  168.9943 C.ar    1  UNL1        0.0047
@<TRIPOS>BOND
     1     8     9   ar
     2     9    10   ar
     3    10    11   ar
     4    11     7    1
     5     7     1    1
     6     1     2    1
     7     2     3    1
     8     3     4    1
     9     4    14    1
    10    14    15    1
    11    15    16   ar
    12    16    17   ar
    13    17    18   ar
    14    18    20    1
    15    20    21   ar
    16    21    22   ar
    17    22    23   ar
    18    23    24   ar
    19    24    25   ar
    20    18    19   ar
    21     4     5    1
    22     5     6    1
    23    11    12   ar
    24    12    13   ar
    25    13     8   ar
    26     6     1    1
    27    19    15   ar
    28    25    20   ar
@<TRIPOS>MOLECULE
*****
 25 28 0 0 0
SMALL
GASTEIGER

@<TRIPOS>ATOM
      1 N         140.9062  142.4089  165.2143 N.3     1  UNL1       -0.2665
      2 C         141.8857  143.4822  164.8421 C.3     1  UNL1        0.0899
      3 C         141.5291  144.4914  163.7912 C.3     1  UNL1        0.0900
      4 N         140.1930  144.4272  163.1125 N.3     1  UNL1       -0.2624
      5 C         139.2135  143.3539  163.4847 C.3     1  UNL1        0.0900
      6 C         139.5701  142.3447  164.5356 C.3     1  UNL1        0.0899
      7 C         141.2628  141.3997  166.2652 C.3     1  UNL1        0.0992
      8 C         142.4672  142.7660  170.3802 C.ar    1  UNL1       -0.0000
      9 C         143.2943  141.7449  169.6569 C.ar    1  UNL1       -0.0003
     10 C         142.8929  141.2895  168.2853 C.ar    1  UNL1       -0.0029
     11 C         141.6643  141.8551  167.6369 C.ar    1  UNL1       -0.0061
     12 C         140.8371  142.8763  168.3601 C.ar    1  UNL1       -0.0029
     13 C         141.2386  143.3317  169.7317 C.ar    1  UNL1       -0.0003
     14 C         139.8364  145.4364  162.0616 C.3     1  UNL1        0.1604
     15 C         140.4888  145.3766  160.7122 C.ar    1  UNL1        0.2426
     16 N         141.8407  144.8008  160.4114 N.ar    1  UNL1       -0.1099
     17 N         142.0913  144.9504  158.9400 N.ar    1  UNL1       -0.1072
     18 C         140.8941  145.6186  158.3315 C.ar    1  UNL1        0.2496
     19 O         139.9037  145.8820  159.4268 O.2     1  UNL1       -0.4181
     20 C         140.7182  145.9630  156.8822 C.ar    1  UNL1        0.0551
     21 C         141.6870  145.4390  155.8640 C.ar    1  UNL1        0.0047
     22 C         141.5111  145.7833  154.4147 C.ar    1  UNL1        0.0002
     23 C         140.3665  146.6517  153.9837 C.ar    1  UNL1        0.0000
     24 C         139.3977  147.1756  155.0019 C.ar    1  UNL1        0.0002
     25 C         139.5735  146.8313  156.4512 C.ar    1  UNL1        0.0047
@<TRIPOS>BOND
     1     8     9   ar
     2     9    10   ar
     3    10    11   ar
     4    11     7    1
     5     7     1    1
     6     1     2    1
     7     2     3    1
     8     3     4    1
     9     4    14    1
    10    14    15    1
    11    15    16   ar
    12    16    17   ar
    13    17    18   ar
    14    18    20    1
    15    20    21   ar
    16    21    22   ar
    17    22    23   ar
    18    23    24   ar
    19    24    25   ar
    20    18    19   ar
    21     4     5    1
    22     5     6    1
    23    11    12   ar
    24    12    13   ar
    25    13     8   ar
    26     6     1    1
    27    19    15   ar
    28    25    20   ar
@<TRIPOS>MOLECULE
*****
 25 28 0 0 0
SMALL
GASTEIGER

@<TRIPOS>ATOM
      1 N         140.4417  145.0011  159.8644 N.3     1  UNL1       -0.2665
      2 C         140.2017  145.8404  161.0843 C.3     1  UNL1        0.0899
      3 C         139.3655  145.3065  162.2094 C.3     1  UNL1        0.0900
      4 N         138.7693  143.9334  162.1146 N.3     1  UNL1       -0.2624
      5 C         139.0093  143.0940  160.8949 C.3     1  UNL1        0.0900
      6 C         139.8455  143.6279  159.7697 C.3     1  UNL1        0.0899
      7 C         141.2778  145.5349  158.7393 C.3     1  UNL1        0.0992
      8 C         139.5980  145.6964  154.5678 C.ar    1  UNL1       -0.0000
      9 C         139.1376  146.6822  155.6004 C.ar    1  UNL1       -0.0003
     10 C         139.6976  146.6283  156.9909 C.ar    1  UNL1       -0.0029
     11 C         140.7179  145.5887  157.3488 C.ar    1  UNL1       -0.0061
     12 C         141.1782  144.6030  156.3162 C.ar    1  UNL1       -0.0029
     13 C         140.6183  144.6568  154.9257 C.ar    1  UNL1       -0.0003
     14 C         137.9332  143.3995  163.2398 C.3     1  UNL1        0.1604
     15 C         138.5882  142.7074  164.3981 C.ar    1  UNL1        0.2426
     16 N         138.4454  141.2573  164.7541 N.ar    1  UNL1       -0.1099
     17 N         139.2701  140.9975  165.9799 N.ar    1  UNL1       -0.1072
     18 C         139.9225  142.2871  166.3815 C.ar    1  UNL1        0.2496
     19 O         139.5011  143.3439  165.4039 O.2     1  UNL1       -0.4181
     20 C         140.8360  142.4852  167.5547 C.ar    1  UNL1        0.0551
     21 C         142.2496  141.9868  167.4970 C.ar    1  UNL1        0.0047
     22 C         143.1631  142.1849  168.6702 C.ar    1  UNL1        0.0002
     23 C         142.6629  142.8812  169.9010 C.ar    1  UNL1        0.0000
     24 C         141.2493  143.3796  169.9587 C.ar    1  UNL1        0.0002
     25 C         140.3358  143.1816  168.7855 C.ar    1  UNL1        0.0047
@<TRIPOS>BOND
     1     8     9   ar
     2     9    10   ar
     3    10    11   ar
     4    11     7    1
     5     7     1    1
     6     1     2    1
     7     2     3    1
     8     3     4    1
     9     4    14    1
    10    14    15    1
    11    15    16   ar
    12    16    17   ar
    13    17    18   ar
    14    18    20    1
    15    20    21   ar
    16    21    22   ar
    17    22    23   ar
    18    23    24   ar
    19    24    25   ar
    20    18    19   ar
    21     4     5    1
    22     5     6    1
    23    11    12   ar
    24    12    13   ar
    25    13     8   ar
    26     6     1    1
    27    19    15   ar
    28    25    20   ar
@<TRIPOS>MOLECULE
*****
 25 28 0 0 0
SMALL
GASTEIGER

@<TRIPOS>ATOM
      1 N         144.2517  141.6736  159.9994 N.3     1  UNL1       -0.2665
      2 C         144.7991  142.5806  161.0613 C.3     1  UNL1        0.0899
      3 C         145.0113  142.0633  162.4532 C.3     1  UNL1        0.0900
      4 N         144.6761  140.6390  162.7832 N.3     1  UNL1       -0.2624
      5 C         144.1287  139.7319  161.7213 C.3     1  UNL1        0.0900
      6 C         143.9165  140.2492  160.3294 C.3     1  UNL1        0.0899
      7 C         144.0395  142.1909  158.6075 C.3     1  UNL1        0.0992
      8 C         147.1935  141.5479  155.4629 C.ar    1  UNL1       -0.0000
      9 C         145.9250  140.7482  155.4274 C.ar    1  UNL1       -0.0003
     10 C         144.8737  140.9625  156.4756 C.ar    1  UNL1       -0.0029
     11 C         145.0908  141.9765  157.5593 C.ar    1  UNL1       -0.0061
     12 C         146.3594  142.7762  157.5949 C.ar    1  UNL1       -0.0029
     13 C         147.4107  142.5619  156.5467 C.ar    1  UNL1       -0.0003
     14 C         144.8883  140.1217  164.1752 C.3     1  UNL1        0.1604
     15 C         143.7160  139.9309  165.0912 C.ar    1  UNL1        0.2426
     16 N         142.8130  138.7339  165.1299 N.ar    1  UNL1       -0.1099
     17 N         141.7797  138.9668  166.1921 N.ar    1  UNL1       -0.1072
     18 C         142.0442  140.3079  166.8098 C.ar    1  UNL1        0.2496
     19 O         143.2409  140.9037  166.1295 O.2     1  UNL1       -0.4181
     20 C         141.2512  140.9418  167.9141 C.ar    1  UNL1        0.0551
     21 C         141.4833  142.3793  168.2743 C.ar    1  UNL1        0.0047
     22 C         140.6903  143.0132  169.3785 C.ar    1  UNL1        0.0002
     23 C         139.6652  142.2096  170.1225 C.ar    1  UNL1        0.0000
     24 C         139.4331  140.7721  169.7622 C.ar    1  UNL1        0.0002
     25 C         140.2261  140.1382  168.6580 C.ar    1  UNL1        0.0047
@<TRIPOS>BOND
     1     8     9   ar
     2     9    10   ar
     3    10    11   ar
     4    11     7    1
     5     7     1    1
     6     1     2    1
     7     2     3    1
     8     3     4    1
     9     4    14    1
    10    14    15    1
    11    15    16   ar
    12    16    17   ar
    13    17    18   ar
    14    18    20    1
    15    20    21   ar
    16    21    22   ar
    17    22    23   ar
    18    23    24   ar
    19    24    25   ar
    20    18    19   ar
    21     4     5    1
    22     5     6    1
    23    11    12   ar
    24    12    13   ar
    25    13     8   ar
    26     6     1    1
    27    19    15   ar
    28    25    20   ar
@<TRIPOS>MOLECULE
*****
 25 28 0 0 0
SMALL
GASTEIGER

@<TRIPOS>ATOM
      1 N         142.0030  137.6130  157.9755 N.3     1  UNL1       -0.2665
      2 C         140.6162  138.0523  157.6096 C.3     1  UNL1        0.0899
      3 C         139.7495  138.7275  158.6308 C.3     1  UNL1        0.0900
      4 N         140.2695  138.9635  160.0178 N.3     1  UNL1       -0.2624
      5 C         141.6563  138.5242  160.3837 C.3     1  UNL1        0.0900
      6 C         142.5231  137.8489  159.3625 C.3     1  UNL1        0.0899
      7 C         142.8697  136.9377  156.9543 C.3     1  UNL1        0.0992
      8 C         142.2023  132.6025  155.9494 C.ar    1  UNL1       -0.0000
      9 C         141.4432  133.6679  155.2156 C.ar    1  UNL1       -0.0003
     10 C         141.6657  135.1130  155.5505 C.ar    1  UNL1       -0.0029
     11 C         142.6472  135.4927  156.6193 C.ar    1  UNL1       -0.0061
     12 C         143.4063  134.4272  157.3532 C.ar    1  UNL1       -0.0029
     13 C         143.1838  132.9821  157.0182 C.ar    1  UNL1       -0.0003
     14 C         139.4028  139.6388  161.0390 C.3     1  UNL1        0.1604
     15 C         139.4219  139.1733  162.4648 C.ar    1  UNL1        0.2426
     16 N         138.8015  137.9122  162.9889 N.ar    1  UNL1       -0.1099
     17 N         139.0610  137.8466  164.4649 N.ar    1  UNL1       -0.1072
     18 C         139.8419  139.0672  164.8529 C.ar    1  UNL1        0.2496
     19 O         140.0649  139.8871  163.6168 O.2     1  UNL1       -0.4181
     20 C         140.3163  139.4080  166.2345 C.ar    1  UNL1        0.0551
     21 C         139.3267  139.7957  167.2930 C.ar    1  UNL1        0.0047
     22 C         139.8011  140.1365  168.6745 C.ar    1  UNL1        0.0002
     23 C         141.2652  140.0896  168.9976 C.ar    1  UNL1        0.0000
     24 C         142.2548  139.7020  167.9391 C.ar    1  UNL1        0.0002
     25 C         141.7804  139.3612  166.5576 C.ar    1  UNL1        0.0047
@<TRIPOS>BOND
     1     8     9   ar
     2     9    10   ar
     3    10    11   ar
     4    11     7    1
     5     7     1    1
     6     1     2    1
     7     2     3    1
     8     3     4    1
     9     4    14    1
    10    14    15    1
    11    15    16   ar
    12    16    17   ar
    13    17    18   ar
    14    18    20    1
    15    20    21   ar
    16    21    22   ar
    17    22    23   ar
    18    23    24   ar
    19    24    25   ar
    20    18    19   ar
    21     4     5    1
    22     5     6    1
    23    11    12   ar
    24    12    13   ar
    25    13     8   ar
    26     6     1    1
    27    19    15   ar
    28    25    20   ar
