@<TRIPOS>MOLECULE
*****
 37 41 0 0 0
SMALL
GASTEIGER

@<TRIPOS>ATOM
      1 N         139.1498  144.4723  163.1939 N.3     1  UNL1       -0.2673
      2 C         140.0242  144.3614  164.4076 C.3     1  UNL1        0.1035
      3 C         139.9590  143.1355  165.2695 C.3     1  UNL1        0.1470
      4 C         139.8938  141.9096  166.1314 C.3     1  UNL1        0.1036
      5 N         138.9542  140.7946  165.7797 N.3     1  UNL1       -0.2653
      6 C         138.0797  140.9055  164.5659 C.3     1  UNL1        0.1036
      7 C         138.1449  142.1313  163.7040 C.3     1  UNL1        0.1470
      8 C         138.2101  143.3572  162.8421 C.3     1  UNL1        0.1035
      9 O         139.0193  142.0205  164.9177 O.3     1  UNL1       -0.3530
     10 C         139.2150  145.6982  162.3320 C.3     1  UNL1        0.0916
     11 C         140.3544  145.8817  161.3739 C.3     1  UNL1        0.1131
     12 C         140.3065  144.7672  159.0275 C.3     1  UNL1        0.1149
     13 N         140.7532  144.7615  160.4594 N.3     1  UNL1       -0.1526
     14 S         141.5988  143.6358  160.9769 S.O2    1  UNL1        0.0634
     15 O         140.6225  142.6447  160.4159 O.2     1  UNL1       -0.1528
     16 O         142.5750  144.6269  161.5379 O.2     1  UNL1       -0.1528
     17 C         142.4443  142.5100  161.4944 C.ar    1  UNL1        0.1221
     18 C         143.3342  141.7484  160.5573 C.ar    1  UNL1        0.0230
     19 C         144.1797  140.6226  161.0748 C.ar    1  UNL1        0.0379
     20 C         144.1353  140.2585  162.5293 C.ar    1  UNL1        0.1347
     21 C         143.2454  141.0202  163.4663 C.ar    1  UNL1        0.0168
     22 C         142.3999  142.1459  162.9488 C.ar    1  UNL1        0.0188
     23 C         143.4103  140.4375  164.8386 C.3     1  UNL1        0.0768
     24 C         144.4021  139.3157  164.7497 C.3     1  UNL1        0.2102
     25 O         144.8502  139.2051  163.3225 O.3     1  UNL1       -0.4754
     26 C         138.8889  139.5687  166.6416 C.3     1  UNL1        0.1202
     27 C         138.1402  138.3581  166.1683 C.3     1  UNL1        0.2228
     28 O         138.8655  137.2635  165.4434 O.3     1  UNL1       -0.4717
     29 C         139.5013  137.5382  164.1129 C.ar    1  UNL1        0.1659
     30 C         138.6433  137.8313  162.9179 C.ar    1  UNL1        0.0399
     31 C         139.2790  138.1061  161.5873 C.ar    1  UNL1        0.0135
     32 C         140.7728  138.0878  161.4518 C.ar    1  UNL1        0.0709
     33 C         141.6308  137.7947  162.6468 C.ar    1  UNL1        0.0430
     34 C         140.9951  137.5200  163.9773 C.ar    1  UNL1        0.1745
     35 F         141.8531  137.2269  165.1723 F       1  UNL1       -0.2009
     36 C         141.4085  138.3626  160.1213 C.1     1  UNL1        0.1005
     37 N         142.0442  138.6373  158.7907 N.1     1  UNL1       -0.1908
@<TRIPOS>BOND
     1    12    13    1
     2    13    11    1
     3    11    10    1
     4    10     1    1
     5     1     2    1
     6     2     3    1
     7     3     4    1
     8     4     5    1
     9     5    26    1
    10    26    27    1
    11    27    28    1
    12    28    29    1
    13    29    30   ar
    14    30    31   ar
    15    31    32   ar
    16    32    36    1
    17    36    37    3
    18    32    33   ar
    19    33    34   ar
    20    34    35    1
    21     5     6    1
    22     6     7    1
    23     7     8    1
    24     7     9    1
    25    13    14    1
    26    14    15    2
    27    14    16    2
    28    14    17    1
    29    17    18   ar
    30    18    19   ar
    31    19    20   ar
    32    20    21   ar
    33    21    22   ar
    34    21    23    1
    35    23    24    1
    36    24    25    1
    37     8     1    1
    38    22    17   ar
    39     9     3    1
    40    25    20    1
    41    34    29   ar
@<TRIPOS>MOLECULE
*****
 37 41 0 0 0
SMALL
GASTEIGER

@<TRIPOS>ATOM
      1 N         143.4025  140.3556  160.2956 N.3     1  UNL1       -0.2673
      2 C         144.1308  140.0758  161.5767 C.3     1  UNL1        0.1035
      3 C         143.4388  139.3442  162.6884 C.3     1  UNL1        0.1470
      4 C         142.7468  138.6125  163.8001 C.3     1  UNL1        0.1036
      5 N         141.3265  138.1608  163.6307 N.3     1  UNL1       -0.2653
      6 C         140.5982  138.4406  162.3495 C.3     1  UNL1        0.1036
      7 C         141.2902  139.1723  161.2379 C.3     1  UNL1        0.1470
      8 C         141.9822  139.9039  160.1262 C.3     1  UNL1        0.1035
      9 O         142.0185  138.8924  162.5189 O.3     1  UNL1       -0.3530
     10 C         144.0945  141.0873  159.1839 C.3     1  UNL1        0.0916
     11 C         144.2757  142.5742  159.2632 C.3     1  UNL1        0.1131
     12 C         142.6602  144.1001  157.9173 C.3     1  UNL1        0.1149
     13 N         143.0802  143.4790  159.2164 N.3     1  UNL1       -0.1526
     14 S         142.3048  143.7627  160.4687 S.O2    1  UNL1        0.0634
     15 O         141.0208  143.6010  159.7103 O.2     1  UNL1       -0.1528
     16 O         143.5888  143.9243  161.2271 O.2     1  UNL1       -0.1528
     17 C         141.5294  144.0464  161.7210 C.ar    1  UNL1        0.1221
     18 C         142.2255  144.6165  162.9212 C.ar    1  UNL1        0.0230
     19 C         141.4501  144.9001  164.1735 C.ar    1  UNL1        0.0379
     20 C         139.9786  144.6137  164.2256 C.ar    1  UNL1        0.1347
     21 C         139.2825  144.0436  163.0254 C.ar    1  UNL1        0.0168
     22 C         140.0579  143.7599  161.7731 C.ar    1  UNL1        0.0188
     23 C         137.8337  143.8659  163.3708 C.3     1  UNL1        0.0768
     24 C         137.6343  144.3262  164.7844 C.3     1  UNL1        0.2102
     25 O         138.9600  144.7884  165.3127 O.3     1  UNL1       -0.4754
     26 C         140.6345  137.4291  164.7423 C.3     1  UNL1        0.1202
     27 C         139.2098  137.7539  165.0812 C.3     1  UNL1        0.2228
     28 O         138.7869  139.1826  165.2540 O.3     1  UNL1       -0.4717
     29 C         139.4828  140.0547  166.2565 C.ar    1  UNL1        0.1659
     30 C         139.2412  139.8518  167.7229 C.ar    1  UNL1        0.0399
     31 C         139.9372  140.7240  168.7254 C.ar    1  UNL1        0.0135
     32 C         140.8747  141.7991  168.2614 C.ar    1  UNL1        0.0709
     33 C         141.1163  142.0020  166.7950 C.ar    1  UNL1        0.0430
     34 C         140.4204  141.1298  165.7925 C.ar    1  UNL1        0.1745
     35 F         140.6619  141.3327  164.3261 F       1  UNL1       -0.2009
     36 C         141.5706  142.6712  169.2639 C.1     1  UNL1        0.1005
     37 N         142.2665  143.5434  170.2665 N.1     1  UNL1       -0.1908
@<TRIPOS>BOND
     1    12    13    1
     2    13    11    1
     3    11    10    1
     4    10     1    1
     5     1     2    1
     6     2     3    1
     7     3     4    1
     8     4     5    1
     9     5    26    1
    10    26    27    1
    11    27    28    1
    12    28    29    1
    13    29    30   ar
    14    30    31   ar
    15    31    32   ar
    16    32    36    1
    17    36    37    3
    18    32    33   ar
    19    33    34   ar
    20    34    35    1
    21     5     6    1
    22     6     7    1
    23     7     8    1
    24     7     9    1
    25    13    14    1
    26    14    15    2
    27    14    16    2
    28    14    17    1
    29    17    18   ar
    30    18    19   ar
    31    19    20   ar
    32    20    21   ar
    33    21    22   ar
    34    21    23    1
    35    23    24    1
    36    24    25    1
    37     8     1    1
    38    22    17   ar
    39     9     3    1
    40    25    20    1
    41    34    29   ar
@<TRIPOS>MOLECULE
*****
 37 41 0 0 0
SMALL
GASTEIGER

@<TRIPOS>ATOM
      1 N         140.8894  138.3358  159.9651 N.3     1  UNL1       -0.2673
      2 C         141.7169  137.7968  161.0941 C.3     1  UNL1        0.1035
      3 C         141.1397  137.7192  162.4764 C.3     1  UNL1        0.1470
      4 C         140.5626  137.6415  163.8588 C.3     1  UNL1        0.1036
      5 N         139.1579  138.1028  164.1121 N.3     1  UNL1       -0.2653
      6 C         138.3304  138.6418  162.9830 C.3     1  UNL1        0.1036
      7 C         138.9075  138.7194  161.6007 C.3     1  UNL1        0.1470
      8 C         139.4847  138.7971  160.2184 C.3     1  UNL1        0.1035
      9 O         139.7350  138.1805  162.7297 O.3     1  UNL1       -0.3530
     10 C         141.4665  138.4135  158.5827 C.3     1  UNL1        0.0916
     11 C         142.9539  138.4477  158.3918 C.3     1  UNL1        0.1131
     12 C         144.2487  140.3532  157.1906 C.3     1  UNL1        0.1149
     13 N         143.6872  139.7552  158.4464 N.3     1  UNL1       -0.1526
     14 S         143.8589  140.4646  159.7568 S.O2    1  UNL1        0.0634
     15 O         143.1650  141.6701  159.1951 O.2     1  UNL1       -0.1528
     16 O         144.5527  139.2592  160.3185 O.2     1  UNL1       -0.1528
     17 C         144.0305  141.1740  161.0673 C.ar    1  UNL1        0.1221
     18 C         144.5531  140.4298  162.2602 C.ar    1  UNL1        0.0230
     19 C         144.7248  141.1392  163.5706 C.ar    1  UNL1        0.0379
     20 C         144.3739  142.5929  163.6881 C.ar    1  UNL1        0.1347
     21 C         143.8514  143.3371  162.4952 C.ar    1  UNL1        0.0168
     22 C         143.6797  142.6276  161.1848 C.ar    1  UNL1        0.0188
     23 C         143.5915  144.7547  162.9107 C.3     1  UNL1        0.0768
     24 C         143.9534  144.8867  164.3603 C.3     1  UNL1        0.2102
     25 O         144.4370  143.5505  164.8409 O.3     1  UNL1       -0.4754
     26 C         138.5807  138.0251  165.4944 C.3     1  UNL1        0.1202
     27 C         138.3102  139.2828  166.2660 C.3     1  UNL1        0.2228
     28 O         139.3612  140.3492  166.3543 O.3     1  UNL1       -0.4717
     29 C         139.3241  141.5184  165.4154 C.ar    1  UNL1        0.1659
     30 C         138.0626  141.8434  164.6718 C.ar    1  UNL1        0.0399
     31 C         138.0255  143.0127  163.7329 C.ar    1  UNL1        0.0135
     32 C         139.2499  143.8568  163.5375 C.ar    1  UNL1        0.0709
     33 C         140.5114  143.5318  164.2810 C.ar    1  UNL1        0.0430
     34 C         140.5486  142.3626  165.2200 C.ar    1  UNL1        0.1745
     35 F         141.8101  142.0376  165.9635 F       1  UNL1       -0.2009
     36 C         139.2127  145.0259  162.5985 C.1     1  UNL1        0.1005
     37 N         139.1756  146.1952  161.6596 N.1     1  UNL1       -0.1908
@<TRIPOS>BOND
     1    12    13    1
     2    13    11    1
     3    11    10    1
     4    10     1    1
     5     1     2    1
     6     2     3    1
     7     3     4    1
     8     4     5    1
     9     5    26    1
    10    26    27    1
    11    27    28    1
    12    28    29    1
    13    29    30   ar
    14    30    31   ar
    15    31    32   ar
    16    32    36    1
    17    36    37    3
    18    32    33   ar
    19    33    34   ar
    20    34    35    1
    21     5     6    1
    22     6     7    1
    23     7     8    1
    24     7     9    1
    25    13    14    1
    26    14    15    2
    27    14    16    2
    28    14    17    1
    29    17    18   ar
    30    18    19   ar
    31    19    20   ar
    32    20    21   ar
    33    21    22   ar
    34    21    23    1
    35    23    24    1
    36    24    25    1
    37     8     1    1
    38    22    17   ar
    39     9     3    1
    40    25    20    1
    41    34    29   ar
@<TRIPOS>MOLECULE
*****
 37 41 0 0 0
SMALL
GASTEIGER

@<TRIPOS>ATOM
      1 N         142.2109  139.2760  158.5349 N.3     1  UNL1       -0.2673
      2 C         142.5941  140.7227  158.4339 C.3     1  UNL1        0.1035
      3 C         143.4194  141.3571  159.5139 C.3     1  UNL1        0.1470
      4 C         144.2447  141.9915  160.5939 C.3     1  UNL1        0.1036
      5 N         144.6868  141.1792  161.7749 N.3     1  UNL1       -0.2653
      6 C         144.3036  139.7324  161.8758 C.3     1  UNL1        0.1036
      7 C         143.4783  139.0981  160.7958 C.3     1  UNL1        0.1470
      8 C         142.6530  138.4637  159.7159 C.3     1  UNL1        0.1035
      9 O         143.8615  140.5448  160.6948 O.3     1  UNL1       -0.3530
     10 C         141.3855  138.6416  157.4549 C.3     1  UNL1        0.0916
     11 C         139.9316  138.3580  157.6909 C.3     1  UNL1        0.1131
     12 C         138.3596  140.3766  157.2390 C.3     1  UNL1        0.1149
     13 N         139.0294  139.4418  158.2021 N.3     1  UNL1       -0.1526
     14 S         138.7969  139.5908  159.6765 S.O2    1  UNL1        0.0634
     15 O         139.1578  138.1490  159.8791 O.2     1  UNL1       -0.1528
     16 O         138.4360  141.0326  159.4739 O.2     1  UNL1       -0.1528
     17 C         138.5645  139.7398  161.1509 C.ar    1  UNL1        0.1221
     18 C         137.9681  141.0053  161.6920 C.ar    1  UNL1        0.0230
     19 C         137.7356  141.1543  163.1663 C.ar    1  UNL1        0.0379
     20 C         138.0996  140.0378  164.0996 C.ar    1  UNL1        0.1347
     21 C         138.6960  138.7723  163.5585 C.ar    1  UNL1        0.0168
     22 C         138.9284  138.6233  162.0841 C.ar    1  UNL1        0.0188
     23 C         138.9525  137.8500  164.7133 C.3     1  UNL1        0.0768
     24 C         138.5146  138.5455  165.9681 C.3     1  UNL1        0.2102
     25 O         137.9875  139.8976  165.5888 O.3     1  UNL1       -0.4754
     26 C         145.5121  141.8136  162.8548 C.3     1  UNL1        0.1202
     27 C         145.2694  141.4570  164.2915 C.3     1  UNL1        0.2228
     28 O         144.1003  142.0465  165.0234 O.3     1  UNL1       -0.4717
     29 C         143.1245  142.9229  164.2956 C.ar    1  UNL1        0.1659
     30 C         143.3510  144.4043  164.2300 C.ar    1  UNL1        0.0399
     31 C         142.3751  145.2807  163.5022 C.ar    1  UNL1        0.0135
     32 C         141.1728  144.6758  162.8401 C.ar    1  UNL1        0.0709
     33 C         140.9462  143.1944  162.9057 C.ar    1  UNL1        0.0430
     34 C         141.9221  142.3180  163.6335 C.ar    1  UNL1        0.1745
     35 F         141.6956  140.8367  163.6991 F       1  UNL1       -0.2009
     36 C         140.1969  145.5522  162.1123 C.1     1  UNL1        0.1005
     37 N         139.2210  146.4286  161.3846 N.1     1  UNL1       -0.1908
@<TRIPOS>BOND
     1    12    13    1
     2    13    11    1
     3    11    10    1
     4    10     1    1
     5     1     2    1
     6     2     3    1
     7     3     4    1
     8     4     5    1
     9     5    26    1
    10    26    27    1
    11    27    28    1
    12    28    29    1
    13    29    30   ar
    14    30    31   ar
    15    31    32   ar
    16    32    36    1
    17    36    37    3
    18    32    33   ar
    19    33    34   ar
    20    34    35    1
    21     5     6    1
    22     6     7    1
    23     7     8    1
    24     7     9    1
    25    13    14    1
    26    14    15    2
    27    14    16    2
    28    14    17    1
    29    17    18   ar
    30    18    19   ar
    31    19    20   ar
    32    20    21   ar
    33    21    22   ar
    34    21    23    1
    35    23    24    1
    36    24    25    1
    37     8     1    1
    38    22    17   ar
    39     9     3    1
    40    25    20    1
    41    34    29   ar
@<TRIPOS>MOLECULE
*****
 37 41 0 0 0
SMALL
GASTEIGER

@<TRIPOS>ATOM
      1 N         144.2444  141.8572  159.8855 N.3     1  UNL1       -0.2673
      2 C         144.8018  142.5614  161.0868 C.3     1  UNL1        0.1035
      3 C         144.8959  141.8434  162.4004 C.3     1  UNL1        0.1470
      4 C         144.9901  141.1255  163.7141 C.3     1  UNL1        0.1036
      5 N         144.5268  139.7032  163.8263 N.3     1  UNL1       -0.2653
      6 C         143.9693  138.9990  162.6249 C.3     1  UNL1        0.1036
      7 C         143.8752  139.7170  161.3113 C.3     1  UNL1        0.1470
      8 C         143.7810  140.4350  159.9977 C.3     1  UNL1        0.1035
      9 O         144.4326  140.4212  162.5127 O.3     1  UNL1       -0.3530
     10 C         144.1502  142.5752  158.5718 C.3     1  UNL1        0.0916
     11 C         142.8421  142.6315  157.8399 C.3     1  UNL1        0.1131
     12 C         141.3775  144.6058  156.9990 C.3     1  UNL1        0.1149
     13 N         141.8729  143.7415  158.1203 N.3     1  UNL1       -0.1526
     14 S         141.3992  143.9872  159.5222 S.O2    1  UNL1        0.0634
     15 O         140.8609  142.5886  159.5854 O.2     1  UNL1       -0.1528
     16 O         141.9375  145.3859  159.4590 O.2     1  UNL1       -0.1528
     17 C         140.9255  144.2329  160.9241 C.ar    1  UNL1        0.1221
     18 C         141.8775  144.7620  161.9555 C.ar    1  UNL1        0.0230
     19 C         141.4038  145.0077  163.3574 C.ar    1  UNL1        0.0379
     20 C         139.9781  144.7243  163.7278 C.ar    1  UNL1        0.1347
     21 C         139.0262  144.1952  162.6964 C.ar    1  UNL1        0.0168
     22 C         139.4999  143.9495  161.2945 C.ar    1  UNL1        0.0188
     23 C         137.6891  144.0111  163.3508 C.3     1  UNL1        0.0768
     24 C         137.8147  144.4263  164.7867 C.3     1  UNL1        0.2102
     25 O         139.2294  144.8671  165.0197 O.3     1  UNL1       -0.4754
     26 C         144.6209  138.9852  165.1399 C.3     1  UNL1        0.1202
     27 C         143.3723  138.5453  165.8454 C.3     1  UNL1        0.2228
     28 O         142.0939  139.3057  165.6517 O.3     1  UNL1       -0.4717
     29 C         141.5280  140.1203  166.7770 C.ar    1  UNL1        0.1659
     30 C         140.2648  139.6834  167.4577 C.ar    1  UNL1        0.0399
     31 C         139.6989  140.4981  168.5830 C.ar    1  UNL1        0.0135
     32 C         140.3963  141.7495  169.0275 C.ar    1  UNL1        0.0709
     33 C         141.6595  142.1864  168.3467 C.ar    1  UNL1        0.0430
     34 C         142.2254  141.3718  167.2215 C.ar    1  UNL1        0.1745
     35 F         143.4886  141.8086  166.5407 F       1  UNL1       -0.2009
     36 C         139.8304  142.5641  170.1527 C.1     1  UNL1        0.1005
     37 N         139.2645  143.3788  171.2779 N.1     1  UNL1       -0.1908
@<TRIPOS>BOND
     1    12    13    1
     2    13    11    1
     3    11    10    1
     4    10     1    1
     5     1     2    1
     6     2     3    1
     7     3     4    1
     8     4     5    1
     9     5    26    1
    10    26    27    1
    11    27    28    1
    12    28    29    1
    13    29    30   ar
    14    30    31   ar
    15    31    32   ar
    16    32    36    1
    17    36    37    3
    18    32    33   ar
    19    33    34   ar
    20    34    35    1
    21     5     6    1
    22     6     7    1
    23     7     8    1
    24     7     9    1
    25    13    14    1
    26    14    15    2
    27    14    16    2
    28    14    17    1
    29    17    18   ar
    30    18    19   ar
    31    19    20   ar
    32    20    21   ar
    33    21    22   ar
    34    21    23    1
    35    23    24    1
    36    24    25    1
    37     8     1    1
    38    22    17   ar
    39     9     3    1
    40    25    20    1
    41    34    29   ar
@<TRIPOS>MOLECULE
*****
 37 41 0 0 0
SMALL
GASTEIGER

@<TRIPOS>ATOM
      1 N         141.8185  138.3482  160.7691 N.3     1  UNL1       -0.2673
      2 C         142.4889  137.8831  162.0277 C.3     1  UNL1        0.1035
      3 C         141.6770  137.6466  163.2666 C.3     1  UNL1        0.1470
      4 C         140.8650  137.4101  164.5055 C.3     1  UNL1        0.1036
      5 N         139.3826  137.6387  164.4857 N.3     1  UNL1       -0.2653
      6 C         138.7123  138.1038  163.2270 C.3     1  UNL1        0.1036
      7 C         139.5242  138.3403  161.9881 C.3     1  UNL1        0.1470
      8 C         140.3362  138.5768  160.7493 C.3     1  UNL1        0.1035
      9 O         140.1946  137.8752  163.2468 O.3     1  UNL1       -0.3530
     10 C         142.6305  138.5847  159.5302 C.3     1  UNL1        0.0916
     11 C         143.8166  139.5018  159.5745 C.3     1  UNL1        0.1131
     12 C         144.3578  141.5912  158.1283 C.3     1  UNL1        0.1149
     13 N         143.6448  140.9645  159.2896 N.3     1  UNL1       -0.1526
     14 S         142.7599  141.8004  160.1661 S.O2    1  UNL1        0.0634
     15 O         143.6299  141.4839  161.3463 O.2     1  UNL1       -0.1528
     16 O         141.8899  142.1169  158.9859 O.2     1  UNL1       -0.1528
     17 C         141.8750  142.6363  161.0426 C.ar    1  UNL1        0.1221
     18 C         142.4608  143.7589  161.8468 C.ar    1  UNL1        0.0230
     19 C         141.5759  144.5949  162.7233 C.ar    1  UNL1        0.0379
     20 C         140.1052  144.3082  162.7955 C.ar    1  UNL1        0.1347
     21 C         139.5196  143.1856  161.9913 C.ar    1  UNL1        0.0168
     22 C         140.4044  142.3497  161.1148 C.ar    1  UNL1        0.0188
     23 C         138.0452  143.1404  162.2637 C.3     1  UNL1        0.0768
     24 C         137.7197  144.2349  163.2363 C.3     1  UNL1        0.2102
     25 O         138.9929  144.9567  163.5650 O.3     1  UNL1       -0.4754
     26 C         138.5707  137.4022  165.7245 C.3     1  UNL1        0.1202
     27 C         137.9602  138.5621  166.4540 C.3     1  UNL1        0.2228
     28 O         138.8195  139.4487  167.3056 O.3     1  UNL1       -0.4717
     29 C         140.0517  140.0788  166.7272 C.ar    1  UNL1        0.1659
     30 C         141.3994  139.7555  167.3011 C.ar    1  UNL1        0.0399
     31 C         142.6316  140.3857  166.7226 C.ar    1  UNL1        0.0135
     32 C         142.5162  141.3390  165.5704 C.ar    1  UNL1        0.0709
     33 C         141.1685  141.6623  164.9965 C.ar    1  UNL1        0.0430
     34 C         139.9363  141.0322  165.5749 C.ar    1  UNL1        0.1745
     35 F         138.5887  141.3555  165.0010 F       1  UNL1       -0.2009
     36 C         143.7484  141.9691  164.9919 C.1     1  UNL1        0.1005
     37 N         144.9807  142.5992  164.4135 N.1     1  UNL1       -0.1908
@<TRIPOS>BOND
     1    12    13    1
     2    13    11    1
     3    11    10    1
     4    10     1    1
     5     1     2    1
     6     2     3    1
     7     3     4    1
     8     4     5    1
     9     5    26    1
    10    26    27    1
    11    27    28    1
    12    28    29    1
    13    29    30   ar
    14    30    31   ar
    15    31    32   ar
    16    32    36    1
    17    36    37    3
    18    32    33   ar
    19    33    34   ar
    20    34    35    1
    21     5     6    1
    22     6     7    1
    23     7     8    1
    24     7     9    1
    25    13    14    1
    26    14    15    2
    27    14    16    2
    28    14    17    1
    29    17    18   ar
    30    18    19   ar
    31    19    20   ar
    32    20    21   ar
    33    21    22   ar
    34    21    23    1
    35    23    24    1
    36    24    25    1
    37     8     1    1
    38    22    17   ar
    39     9     3    1
    40    25    20    1
    41    34    29   ar
@<TRIPOS>MOLECULE
*****
 37 41 0 0 0
SMALL
GASTEIGER

@<TRIPOS>ATOM
      1 N         141.5326  141.1072  158.8677 N.3     1  UNL1       -0.2673
      2 C         140.0369  141.0411  158.9596 C.3     1  UNL1        0.1035
      3 C         139.3871  140.2131  160.0283 C.3     1  UNL1        0.1470
      4 C         138.7371  139.3851  161.0970 C.3     1  UNL1        0.1036
      5 N         139.5830  138.6233  162.0738 N.3     1  UNL1       -0.2653
      6 C         141.0787  138.6894  161.9819 C.3     1  UNL1        0.1036
      7 C         141.7286  139.5174  160.9132 C.3     1  UNL1        0.1470
      8 C         142.3784  140.3454  159.8445 C.3     1  UNL1        0.1035
      9 O         140.2329  139.4513  161.0051 O.3     1  UNL1       -0.3530
     10 C         142.1825  141.9352  157.7990 C.3     1  UNL1        0.0916
     11 C         142.9740  143.1537  158.1716 C.3     1  UNL1        0.1131
     12 C         142.1434  145.5720  157.7110 C.3     1  UNL1        0.1149
     13 N         142.2682  144.3947  158.6320 N.3     1  UNL1       -0.1526
     14 S         141.6871  144.4582  160.0135 S.O2    1  UNL1        0.0634
     15 O         140.3634  144.8665  159.4379 O.2     1  UNL1       -0.1528
     16 O         143.0108  144.0500  160.5890 O.2     1  UNL1       -0.1528
     17 C         141.1061  144.5218  161.3949 C.ar    1  UNL1        0.1221
     18 C         141.9866  144.8484  162.5646 C.ar    1  UNL1        0.0230
     19 C         141.4055  144.9120  163.9460 C.ar    1  UNL1        0.0379
     20 C         139.9440  144.6490  164.1577 C.ar    1  UNL1        0.1347
     21 C         139.0636  144.3224  162.9881 C.ar    1  UNL1        0.0168
     22 C         139.6446  144.2588  161.6067 C.ar    1  UNL1        0.0188
     23 C         137.6700  144.1120  163.5015 C.3     1  UNL1        0.0768
     24 C         137.6891  144.3085  164.9884 C.3     1  UNL1        0.2102
     25 O         139.0946  144.6404  165.3940 O.3     1  UNL1       -0.4754
     26 C         138.9331  137.7953  163.1425 C.3     1  UNL1        0.1202
     27 C         138.9556  138.2597  164.5686 C.3     1  UNL1        0.2228
     28 O         138.8890  139.7252  164.8813 O.3     1  UNL1       -0.4717
     29 C         139.2517  140.2170  166.2512 C.ar    1  UNL1        0.1659
     30 C         140.1489  141.4090  166.4069 C.ar    1  UNL1        0.0399
     31 C         140.5116  141.9008  167.7768 C.ar    1  UNL1        0.0135
     32 C         139.9773  141.2006  168.9909 C.ar    1  UNL1        0.0709
     33 C         139.0802  140.0086  168.8352 C.ar    1  UNL1        0.0430
     34 C         138.7174  139.5168  167.4654 C.ar    1  UNL1        0.1745
     35 F         137.8203  138.3247  167.3096 F       1  UNL1       -0.2009
     36 C         140.3400  141.6924  170.3607 C.1     1  UNL1        0.1005
     37 N         140.7029  142.1842  171.7306 N.1     1  UNL1       -0.1908
@<TRIPOS>BOND
     1    12    13    1
     2    13    11    1
     3    11    10    1
     4    10     1    1
     5     1     2    1
     6     2     3    1
     7     3     4    1
     8     4     5    1
     9     5    26    1
    10    26    27    1
    11    27    28    1
    12    28    29    1
    13    29    30   ar
    14    30    31   ar
    15    31    32   ar
    16    32    36    1
    17    36    37    3
    18    32    33   ar
    19    33    34   ar
    20    34    35    1
    21     5     6    1
    22     6     7    1
    23     7     8    1
    24     7     9    1
    25    13    14    1
    26    14    15    2
    27    14    16    2
    28    14    17    1
    29    17    18   ar
    30    18    19   ar
    31    19    20   ar
    32    20    21   ar
    33    21    22   ar
    34    21    23    1
    35    23    24    1
    36    24    25    1
    37     8     1    1
    38    22    17   ar
    39     9     3    1
    40    25    20    1
    41    34    29   ar
@<TRIPOS>MOLECULE
*****
 37 41 0 0 0
SMALL
GASTEIGER

@<TRIPOS>ATOM
      1 N         142.1170  138.6592  160.6722 N.3     1  UNL1       -0.2673
      2 C         142.7911  138.2824  161.9581 C.3     1  UNL1        0.1035
      3 C         141.9676  137.9227  163.1591 C.3     1  UNL1        0.1470
      4 C         141.1442  137.5630  164.3602 C.3     1  UNL1        0.1036
      5 N         139.6467  137.5801  164.2753 N.3     1  UNL1       -0.2653
      6 C         138.9726  137.9568  162.9893 C.3     1  UNL1        0.1036
      7 C         139.7961  138.3165  161.7883 C.3     1  UNL1        0.1470
      8 C         140.6195  138.6762  160.5873 C.3     1  UNL1        0.1035
      9 O         140.4701  137.9398  163.0742 O.3     1  UNL1       -0.3530
     10 C         142.9405  139.0189  159.4711 C.3     1  UNL1        0.0916
     11 C         142.6756  140.2995  158.7364 C.3     1  UNL1        0.1131
     12 C         144.0875  142.4241  159.2291 C.3     1  UNL1        0.1149
     13 N         142.8419  141.6149  159.4379 N.3     1  UNL1       -0.1526
     14 S         141.7626  142.1211  160.3483 S.O2    1  UNL1        0.0634
     15 O         140.7984  142.1316  159.1993 O.2     1  UNL1       -0.1528
     16 O         142.7267  142.1105  161.4973 O.2     1  UNL1       -0.1528
     17 C         140.6832  142.6272  161.2587 C.ar    1  UNL1        0.1221
     18 C         139.2416  142.4044  160.9091 C.ar    1  UNL1        0.0230
     19 C         138.1622  142.9106  161.8194 C.ar    1  UNL1        0.0379
     20 C         138.5245  143.6396  163.0794 C.ar    1  UNL1        0.1347
     21 C         139.9660  143.8623  163.4289 C.ar    1  UNL1        0.0168
     22 C         141.0454  143.3562  162.5186 C.ar    1  UNL1        0.0188
     23 C         140.0177  144.6094  164.7286 C.3     1  UNL1        0.0768
     24 C         138.6081  144.8483  165.1823 C.3     1  UNL1        0.2102
     25 O         137.6852  144.2489  164.1630 O.3     1  UNL1       -0.4754
     26 C         138.8232  137.2204  165.4764 C.3     1  UNL1        0.1202
     27 C         138.1111  138.2930  166.2461 C.3     1  UNL1        0.2228
     28 O         138.4641  139.7341  166.0260 O.3     1  UNL1       -0.4717
     29 C         139.6252  140.3417  166.7558 C.ar    1  UNL1        0.1659
     30 C         139.6267  140.3898  168.2550 C.ar    1  UNL1        0.0399
     31 C         140.7878  140.9975  168.9848 C.ar    1  UNL1        0.0135
     32 C         141.9475  141.5570  168.2154 C.ar    1  UNL1        0.0709
     33 C         141.9460  141.5089  166.7161 C.ar    1  UNL1        0.0430
     34 C         140.7850  140.9013  165.9864 C.ar    1  UNL1        0.1745
     35 F         140.7835  140.8532  164.4871 F       1  UNL1       -0.2009
     36 C         143.1086  142.1646  168.9452 C.1     1  UNL1        0.1005
     37 N         144.2698  142.7722  169.6749 N.1     1  UNL1       -0.1908
@<TRIPOS>BOND
     1    12    13    1
     2    13    11    1
     3    11    10    1
     4    10     1    1
     5     1     2    1
     6     2     3    1
     7     3     4    1
     8     4     5    1
     9     5    26    1
    10    26    27    1
    11    27    28    1
    12    28    29    1
    13    29    30   ar
    14    30    31   ar
    15    31    32   ar
    16    32    36    1
    17    36    37    3
    18    32    33   ar
    19    33    34   ar
    20    34    35    1
    21     5     6    1
    22     6     7    1
    23     7     8    1
    24     7     9    1
    25    13    14    1
    26    14    15    2
    27    14    16    2
    28    14    17    1
    29    17    18   ar
    30    18    19   ar
    31    19    20   ar
    32    20    21   ar
    33    21    22   ar
    34    21    23    1
    35    23    24    1
    36    24    25    1
    37     8     1    1
    38    22    17   ar
    39     9     3    1
    40    25    20    1
    41    34    29   ar
@<TRIPOS>MOLECULE
*****
 37 41 0 0 0
SMALL
GASTEIGER

@<TRIPOS>ATOM
      1 N         139.4726  141.6316  158.8409 N.3     1  UNL1       -0.2673
      2 C         140.1959  140.3176  158.8253 C.3     1  UNL1        0.1035
      3 C         140.0191  139.3507  159.9583 C.3     1  UNL1        0.1470
      4 C         139.8423  138.3837  161.0914 C.3     1  UNL1        0.1036
      5 N         138.9422  138.7308  162.2400 N.3     1  UNL1       -0.2653
      6 C         138.2189  140.0449  162.2556 C.3     1  UNL1        0.1036
      7 C         138.3957  141.0118  161.1226 C.3     1  UNL1        0.1470
      8 C         138.5725  141.9787  159.9895 C.3     1  UNL1        0.1035
      9 O         139.1190  139.6978  161.1069 O.3     1  UNL1       -0.3530
     10 C         139.6494  142.5986  157.7079 C.3     1  UNL1        0.0916
     11 C         139.4728  144.0695  157.9427 C.3     1  UNL1        0.1131
     12 C         141.2483  145.9002  157.4465 C.3     1  UNL1        0.1149
     13 N         140.6380  144.9034  158.3866 N.3     1  UNL1       -0.1526
     14 S         141.1927  144.7405  159.7707 S.O2    1  UNL1        0.0634
     15 O         142.5080  144.3092  159.1927 O.2     1  UNL1       -0.1528
     16 O         139.8775  145.1718  160.3487 O.2     1  UNL1       -0.1528
     17 C         141.7475  144.5776  161.1548 C.ar    1  UNL1        0.1221
     18 C         141.1239  145.3127  162.3041 C.ar    1  UNL1        0.0230
     19 C         141.6787  145.1498  163.6882 C.ar    1  UNL1        0.0379
     20 C         142.8571  144.2518  163.9229 C.ar    1  UNL1        0.1347
     21 C         143.4806  143.5167  162.7737 C.ar    1  UNL1        0.0168
     22 C         142.9258  143.6796  161.3896 C.ar    1  UNL1        0.0188
     23 C         144.6249  142.7070  163.3075 C.3     1  UNL1        0.0768
     24 C         144.7086  142.9417  164.7866 C.3     1  UNL1        0.2102
     25 O         143.6160  143.8964  165.1670 O.3     1  UNL1       -0.4754
     26 C         138.7653  137.7639  163.3730 C.3     1  UNL1        0.1202
     27 C         139.2631  138.1155  164.7437 C.3     1  UNL1        0.2228
     28 O         140.4388  139.0334  164.9020 O.3     1  UNL1       -0.4717
     29 C         140.4148  140.1095  165.9467 C.ar    1  UNL1        0.1659
     30 C         140.1795  139.7537  167.3847 C.ar    1  UNL1        0.0399
     31 C         140.1554  140.8299  168.4294 C.ar    1  UNL1        0.0135
     32 C         140.3666  142.2619  168.0359 C.ar    1  UNL1        0.0709
     33 C         140.6019  142.6177  166.5979 C.ar    1  UNL1        0.0430
     34 C         140.6260  141.5416  165.5533 C.ar    1  UNL1        0.1745
     35 F         140.8612  141.8974  164.1152 F       1  UNL1       -0.2009
     36 C         140.3425  143.3380  169.0806 C.1     1  UNL1        0.1005
     37 N         140.3185  144.4143  170.1252 N.1     1  UNL1       -0.1908
@<TRIPOS>BOND
     1    12    13    1
     2    13    11    1
     3    11    10    1
     4    10     1    1
     5     1     2    1
     6     2     3    1
     7     3     4    1
     8     4     5    1
     9     5    26    1
    10    26    27    1
    11    27    28    1
    12    28    29    1
    13    29    30   ar
    14    30    31   ar
    15    31    32   ar
    16    32    36    1
    17    36    37    3
    18    32    33   ar
    19    33    34   ar
    20    34    35    1
    21     5     6    1
    22     6     7    1
    23     7     8    1
    24     7     9    1
    25    13    14    1
    26    14    15    2
    27    14    16    2
    28    14    17    1
    29    17    18   ar
    30    18    19   ar
    31    19    20   ar
    32    20    21   ar
    33    21    22   ar
    34    21    23    1
    35    23    24    1
    36    24    25    1
    37     8     1    1
    38    22    17   ar
    39     9     3    1
    40    25    20    1
    41    34    29   ar
