@<TRIPOS>MOLECULE
*****
 38 41 0 0 0
SMALL
GASTEIGER

@<TRIPOS>ATOM
      1 C         141.7236  139.2106  161.4878 C.ar    1  UNL1        0.0674
      2 C         141.5222  137.7328  161.6466 C.ar    1  UNL1        0.1133
      3 N         140.6653  137.2080  162.7603 N.ar    1  UNL1       -0.2425
      4 C         140.0098  138.1612  163.7152 C.ar    1  UNL1        0.0825
      5 C         139.1529  137.6364  164.8289 C.ar    1  UNL1        0.0230
      6 C         138.4973  138.5895  165.7838 C.ar    1  UNL1        0.0741
      7 C         138.6987  140.0675  165.6249 C.ar    1  UNL1        0.0183
      8 C         139.5556  140.5922  164.5112 C.ar    1  UNL1        0.0463
      9 C         140.2112  139.6390  163.5564 C.ar    1  UNL1        0.0320
     10 C         141.0681  140.1638  162.4427 C.ar    1  UNL1        0.0188
     11 N         146.0898  142.4527  157.2836 N.am    1  UNL1       -0.2888
     12 C         145.1512  141.3098  157.0330 C.2     1  UNL1        0.3041
     13 O         145.0695  140.6916  155.6687 O.2     1  UNL1       -0.2526
     14 N         144.2944  140.7850  158.1467 N.am    1  UNL1       -0.2607
     15 C         144.3761  141.4032  159.5109 C.3     1  UNL1        0.1164
     16 C         143.5191  140.8783  160.6247 C.3     1  UNL1        0.1124
     17 N         142.5805  139.7355  160.3741 N.pl3   1  UNL1       -0.3028
     18 C         142.4988  139.1173  159.0098 C.3     1  UNL1        0.1124
     19 C         143.3557  139.6421  157.8961 C.3     1  UNL1        0.1164
     20 H         146.1434  142.8584  158.1790 H       1  UNL1        0.1510
     21 C         148.2020  142.2526  155.7839 C.3     1  UNL1        0.0230
     22 C         146.9468  142.9775  156.1698 C.3     1  UNL1        0.0910
     23 C         137.6404  138.0648  166.8974 C.3     1  UNL1        0.4187
     24 F         136.7835  137.5399  168.0111 F       1  UNL1       -0.1659
     25 F         137.6578  136.7028  166.2691 F       1  UNL1       -0.1659
     26 F         137.6230  139.4267  167.5257 F       1  UNL1       -0.1659
     27 N         139.7570  142.0701  164.3524 N.pl3   1  UNL1       -0.3290
     28 H         139.8990  142.4541  163.4571 H       1  UNL1        0.1471
     29 C         139.7421  142.9628  165.5577 C.3     1  UNL1        0.1145
     30 C         140.7222  142.7368  166.6706 C.ar    1  UNL1        0.0035
     31 C         142.1606  142.4500  166.3565 C.ar    1  UNL1       -0.0022
     32 C         143.1407  142.2241  167.4693 C.ar    1  UNL1        0.0060
     33 C         142.6823  142.2849  168.8963 C.ar    1  UNL1        0.0752
     34 C         141.2439  142.5717  169.2105 C.ar    1  UNL1        0.2898
     35 C         140.2638  142.7977  168.0976 C.ar    1  UNL1        0.0727
     36 N         140.7855  142.6325  170.6374 N.pl3   1  UNL1        0.0809
     37 O         139.3993  143.1058  170.9603 O.2     1  UNL1        0.0415
     38 O         141.7134  142.2199  171.7414 O.co2   1  UNL1       -0.5760
@<TRIPOS>UNITY_ATOM_ATTR
36 1
charge 1
38 1
charge -1
@<TRIPOS>BOND
     1    21    22    1
     2    22    11    1
     3    11    12   am
     4    12    13    2
     5    12    14   am
     6    14    15    1
     7    15    16    1
     8    16    17    1
     9    17     1    1
    10     1     2   ar
    11     2     3   ar
    12     3     4   ar
    13     4     5   ar
    14     5     6   ar
    15     6    23    1
    16    23    24    1
    17    23    25    1
    18    23    26    1
    19     6     7   ar
    20     7     8   ar
    21     8    27    1
    22    27    29    1
    23    29    30    1
    24    30    31   ar
    25    31    32   ar
    26    32    33   ar
    27    33    34   ar
    28    34    36    1
    29    36    37    2
    30    36    38    1
    31    34    35   ar
    32     8     9   ar
    33     9    10   ar
    34    17    18    1
    35    18    19    1
    36    19    14    1
    37    10     1   ar
    38     9     4   ar
    39    35    30   ar
    40    11    20    1
    41    27    28    1
@<TRIPOS>MOLECULE
*****
 38 41 0 0 0
SMALL
GASTEIGER

@<TRIPOS>ATOM
      1 C         142.1693  143.7051  162.2187 C.ar    1  UNL1        0.0674
      2 C         143.5999  143.3425  162.4869 C.ar    1  UNL1        0.1133
      3 N         143.9917  142.7698  163.8167 N.ar    1  UNL1       -0.2425
      4 C         142.9530  142.5596  164.8783 C.ar    1  UNL1        0.0825
      5 C         143.3449  141.9868  166.2081 C.ar    1  UNL1        0.0230
      6 C         142.3062  141.7766  167.2697 C.ar    1  UNL1        0.0741
      7 C         140.8756  142.1392  167.0014 C.ar    1  UNL1        0.0183
      8 C         140.4837  142.7119  165.6716 C.ar    1  UNL1        0.0463
      9 C         141.5225  142.9221  164.6101 C.ar    1  UNL1        0.0320
     10 C         141.1306  143.4949  163.2803 C.ar    1  UNL1        0.0188
     11 N         139.5346  147.0472  156.8207 N.am    1  UNL1       -0.2888
     12 C         140.6017  145.9961  156.8995 C.2     1  UNL1        0.3041
     13 O         141.2770  145.5176  155.6484 O.2     1  UNL1       -0.2526
     14 N         140.9936  145.4233  158.2293 N.am    1  UNL1       -0.2607
     15 C         140.3183  145.9018  159.4803 C.3     1  UNL1        0.1164
     16 C         140.7102  145.3290  160.8101 C.3     1  UNL1        0.1124
     17 N         141.7774  144.2778  160.8889 N.pl3   1  UNL1       -0.3028
     18 C         142.4527  143.7994  159.6378 C.3     1  UNL1        0.1124
     19 C         142.0608  144.3721  158.3081 C.3     1  UNL1        0.1164
     20 H         139.0914  147.3612  157.6418 H       1  UNL1        0.1510
     21 C         138.8089  149.0774  155.3710 C.3     1  UNL1        0.0230
     22 C         139.1426  147.6200  155.4909 C.3     1  UNL1        0.0910
     23 C         142.6981  141.2039  168.5995 C.3     1  UNL1        0.4187
     24 F         143.0900  140.6311  169.9293 F       1  UNL1       -0.1659
     25 F         143.6876  142.3155  168.7867 F       1  UNL1       -0.1659
     26 F         141.7086  140.0922  168.4123 F       1  UNL1       -0.1659
     27 N         139.0532  143.0745  165.4034 N.pl3   1  UNL1       -0.3290
     28 H         138.6921  143.9294  165.7320 H       1  UNL1        0.1471
     29 C         138.1727  142.1345  164.6345 C.3     1  UNL1        0.1145
     30 C         138.4531  140.6610  164.6517 C.ar    1  UNL1        0.0035
     31 C         138.1689  139.8578  165.8862 C.ar    1  UNL1       -0.0022
     32 C         138.4493  138.3844  165.9035 C.ar    1  UNL1        0.0060
     33 C         139.0139  137.7141  164.6861 C.ar    1  UNL1        0.0752
     34 C         139.2982  138.5173  163.4515 C.ar    1  UNL1        0.2898
     35 C         139.0177  139.9908  163.4344 C.ar    1  UNL1        0.0727
     36 N         139.8628  137.8470  162.2342 N.pl3   1  UNL1        0.0809
     37 O         141.1865  137.1456  162.3102 O.2     1  UNL1        0.0415
     38 O         139.1037  137.8782  160.9409 O.co2   1  UNL1       -0.5760
@<TRIPOS>UNITY_ATOM_ATTR
36 1
charge 1
38 1
charge -1
@<TRIPOS>BOND
     1    21    22    1
     2    22    11    1
     3    11    12   am
     4    12    13    2
     5    12    14   am
     6    14    15    1
     7    15    16    1
     8    16    17    1
     9    17     1    1
    10     1     2   ar
    11     2     3   ar
    12     3     4   ar
    13     4     5   ar
    14     5     6   ar
    15     6    23    1
    16    23    24    1
    17    23    25    1
    18    23    26    1
    19     6     7   ar
    20     7     8   ar
    21     8    27    1
    22    27    29    1
    23    29    30    1
    24    30    31   ar
    25    31    32   ar
    26    32    33   ar
    27    33    34   ar
    28    34    36    1
    29    36    37    2
    30    36    38    1
    31    34    35   ar
    32     8     9   ar
    33     9    10   ar
    34    17    18    1
    35    18    19    1
    36    19    14    1
    37    10     1   ar
    38     9     4   ar
    39    35    30   ar
    40    11    20    1
    41    27    28    1
@<TRIPOS>MOLECULE
*****
 38 41 0 0 0
SMALL
GASTEIGER

@<TRIPOS>ATOM
      1 C         141.7001  139.0269  161.5226 C.ar    1  UNL1        0.0674
      2 C         141.7818  137.5836  161.9228 C.ar    1  UNL1        0.1133
      3 N         140.9652  137.0773  163.0746 N.ar    1  UNL1       -0.2425
      4 C         140.0669  138.0144  163.8263 C.ar    1  UNL1        0.0825
      5 C         139.2503  137.5080  164.9782 C.ar    1  UNL1        0.0230
      6 C         138.3520  138.4451  165.7299 C.ar    1  UNL1        0.0741
      7 C         138.2703  139.8884  165.3296 C.ar    1  UNL1        0.0183
      8 C         139.0869  140.3947  164.1778 C.ar    1  UNL1        0.0463
      9 C         139.9852  139.4577  163.4261 C.ar    1  UNL1        0.0320
     10 C         140.8018  139.9639  162.2743 C.ar    1  UNL1        0.0188
     11 N         145.9458  142.1690  157.1235 N.am    1  UNL1       -0.2888
     12 C         144.9665  141.0521  156.9150 C.2     1  UNL1        0.3041
     13 O         144.8038  140.4415  155.5546 O.2     1  UNL1       -0.2526
     14 N         144.1500  140.5458  158.0669 N.am    1  UNL1       -0.2607
     15 C         144.3127  141.1565  159.4273 C.3     1  UNL1        0.1164
     16 C         143.4960  140.6501  160.5792 C.3     1  UNL1        0.1124
     17 N         142.5168  139.5332  160.3707 N.pl3   1  UNL1       -0.3028
     18 C         142.3540  138.9226  159.0103 C.3     1  UNL1        0.1124
     19 C         143.1706  139.4289  157.8584 C.3     1  UNL1        0.1164
     20 H         146.0526  142.5698  158.0164 H       1  UNL1        0.1510
     21 C         148.0367  141.9806  155.5930 C.3     1  UNL1        0.0230
     22 C         146.7624  142.6753  155.9716 C.3     1  UNL1        0.0910
     23 C         137.5354  137.9388  166.8817 C.3     1  UNL1        0.4187
     24 F         136.7187  137.4326  168.0337 F       1  UNL1       -0.1659
     25 F         137.4525  139.3306  167.4347 F       1  UNL1       -0.1659
     26 F         137.6183  136.5469  166.3287 F       1  UNL1       -0.1659
     27 N         139.0052  141.8380  163.7776 N.pl3   1  UNL1       -0.3290
     28 H         138.6728  142.0829  162.8839 H       1  UNL1        0.1471
     29 C         139.4300  142.9081  164.7391 C.3     1  UNL1        0.1145
     30 C         140.6324  142.6986  165.6111 C.ar    1  UNL1        0.0035
     31 C         140.4680  142.1420  166.9943 C.ar    1  UNL1       -0.0022
     32 C         141.6703  141.9325  167.8663 C.ar    1  UNL1        0.0060
     33 C         143.0372  142.2795  167.3551 C.ar    1  UNL1        0.0752
     34 C         143.2017  142.8361  165.9719 C.ar    1  UNL1        0.2898
     35 C         141.9993  143.0456  165.0999 C.ar    1  UNL1        0.0727
     36 N         144.5685  143.1831  165.4607 N.pl3   1  UNL1        0.0809
     37 O         145.3544  144.2842  166.1088 O.2     1  UNL1        0.0415
     38 O         145.1494  142.4290  164.3015 O.co2   1  UNL1       -0.5760
@<TRIPOS>UNITY_ATOM_ATTR
36 1
charge 1
38 1
charge -1
@<TRIPOS>BOND
     1    21    22    1
     2    22    11    1
     3    11    12   am
     4    12    13    2
     5    12    14   am
     6    14    15    1
     7    15    16    1
     8    16    17    1
     9    17     1    1
    10     1     2   ar
    11     2     3   ar
    12     3     4   ar
    13     4     5   ar
    14     5     6   ar
    15     6    23    1
    16    23    24    1
    17    23    25    1
    18    23    26    1
    19     6     7   ar
    20     7     8   ar
    21     8    27    1
    22    27    29    1
    23    29    30    1
    24    30    31   ar
    25    31    32   ar
    26    32    33   ar
    27    33    34   ar
    28    34    36    1
    29    36    37    2
    30    36    38    1
    31    34    35   ar
    32     8     9   ar
    33     9    10   ar
    34    17    18    1
    35    18    19    1
    36    19    14    1
    37    10     1   ar
    38     9     4   ar
    39    35    30   ar
    40    11    20    1
    41    27    28    1
@<TRIPOS>MOLECULE
*****
 38 41 0 0 0
SMALL
GASTEIGER

@<TRIPOS>ATOM
      1 C         139.6985  142.4033  163.5695 C.ar    1  UNL1        0.0674
      2 C         140.4819  143.4644  164.2839 C.ar    1  UNL1        0.1133
      3 N         140.7532  143.3348  165.7534 N.ar    1  UNL1       -0.2425
      4 C         140.2410  142.1442  166.5085 C.ar    1  UNL1        0.0825
      5 C         140.5123  142.0147  167.9782 C.ar    1  UNL1        0.0230
      6 C         140.0002  140.8241  168.7333 C.ar    1  UNL1        0.0741
      7 C         139.2167  139.7631  168.0188 C.ar    1  UNL1        0.0183
      8 C         138.9455  139.8926  166.5493 C.ar    1  UNL1        0.0463
      9 C         139.4576  141.0832  165.7941 C.ar    1  UNL1        0.0320
     10 C         139.1864  141.2127  164.3246 C.ar    1  UNL1        0.0188
     11 N         139.1960  144.0676  156.9191 N.am    1  UNL1       -0.2888
     12 C         138.6133  142.9212  157.6912 C.2     1  UNL1        0.3041
     13 O         137.7592  141.9043  156.9937 O.2     1  UNL1       -0.2526
     14 N         138.8846  142.7918  159.1607 N.am    1  UNL1       -0.2607
     15 C         139.7386  143.8087  159.8581 C.3     1  UNL1        0.1164
     16 C         140.0099  143.6792  161.3278 C.3     1  UNL1        0.1124
     17 N         139.4272  142.5328  162.0998 N.pl3   1  UNL1       -0.3028
     18 C         138.5732  141.5159  161.4024 C.3     1  UNL1        0.1124
     19 C         138.3018  141.6453  159.9329 C.3     1  UNL1        0.1164
     20 H         139.7565  144.7351  157.3769 H       1  UNL1        0.1510
     21 C         137.7150  144.9453  154.9732 C.3     1  UNL1        0.0230
     22 C         138.9247  144.1971  155.4495 C.3     1  UNL1        0.0910
     23 C         140.2714  140.6946  170.2028 C.3     1  UNL1        0.4187
     24 F         140.5427  140.5651  171.6725 F       1  UNL1       -0.1659
     25 F         139.6085  142.0187  170.4419 F       1  UNL1       -0.1659
     26 F         140.9344  139.3705  169.9637 F       1  UNL1       -0.1659
     27 N         138.1621  138.8316  165.8349 N.pl3   1  UNL1       -0.3290
     28 H         137.1829  138.9058  165.7649 H       1  UNL1        0.1471
     29 C         138.8706  137.6575  165.2270 C.3     1  UNL1        0.1145
     30 C         139.5870  137.8093  163.9179 C.ar    1  UNL1        0.0035
     31 C         138.8086  137.8383  162.6359 C.ar    1  UNL1       -0.0022
     32 C         139.5249  137.9902  161.3268 C.ar    1  UNL1        0.0060
     33 C         141.0196  138.1131  161.2996 C.ar    1  UNL1        0.0752
     34 C         141.7980  138.0842  162.5815 C.ar    1  UNL1        0.2898
     35 C         141.0816  137.9323  163.8907 C.ar    1  UNL1        0.0727
     36 N         143.2927  138.2071  162.5543 N.pl3   1  UNL1        0.0809
     37 O         144.0719  137.6315  161.4091 O.2     1  UNL1        0.0415
     38 O         144.0082  138.9057  163.6723 O.co2   1  UNL1       -0.5760
@<TRIPOS>UNITY_ATOM_ATTR
36 1
charge 1
38 1
charge -1
@<TRIPOS>BOND
     1    21    22    1
     2    22    11    1
     3    11    12   am
     4    12    13    2
     5    12    14   am
     6    14    15    1
     7    15    16    1
     8    16    17    1
     9    17     1    1
    10     1     2   ar
    11     2     3   ar
    12     3     4   ar
    13     4     5   ar
    14     5     6   ar
    15     6    23    1
    16    23    24    1
    17    23    25    1
    18    23    26    1
    19     6     7   ar
    20     7     8   ar
    21     8    27    1
    22    27    29    1
    23    29    30    1
    24    30    31   ar
    25    31    32   ar
    26    32    33   ar
    27    33    34   ar
    28    34    36    1
    29    36    37    2
    30    36    38    1
    31    34    35   ar
    32     8     9   ar
    33     9    10   ar
    34    17    18    1
    35    18    19    1
    36    19    14    1
    37    10     1   ar
    38     9     4   ar
    39    35    30   ar
    40    11    20    1
    41    27    28    1
@<TRIPOS>MOLECULE
*****
 38 41 0 0 0
SMALL
GASTEIGER

@<TRIPOS>ATOM
      1 C         140.7158  140.6290  160.3766 C.ar    1  UNL1        0.0674
      2 C         141.2465  142.0154  160.1616 C.ar    1  UNL1        0.1133
      3 N         140.8973  143.1100  161.1259 N.ar    1  UNL1       -0.2425
      4 C         140.0176  142.8182  162.3052 C.ar    1  UNL1        0.0825
      5 C         139.6685  143.9129  163.2696 C.ar    1  UNL1        0.0230
      6 C         138.7887  143.6211  164.4489 C.ar    1  UNL1        0.0741
      7 C         138.2581  142.2346  164.6639 C.ar    1  UNL1        0.0183
      8 C         138.6072  141.1400  163.6996 C.ar    1  UNL1        0.0463
      9 C         139.4869  141.4318  162.5203 C.ar    1  UNL1        0.0320
     10 C         139.8361  140.3372  161.5560 C.ar    1  UNL1        0.0188
     11 N         141.0518  135.6619  155.6369 N.am    1  UNL1       -0.2888
     12 C         142.1123  136.2504  156.5194 C.2     1  UNL1        0.3041
     13 O         143.5220  135.7443  156.4377 O.2     1  UNL1       -0.2526
     14 N         141.7632  137.3450  157.4837 N.am    1  UNL1       -0.2607
     15 C         140.3535  137.8511  157.5655 C.3     1  UNL1        0.1164
     16 C         140.0044  138.9458  158.5298 C.3     1  UNL1        0.1124
     17 N         141.0649  139.5343  159.4123 N.pl3   1  UNL1       -0.3028
     18 C         142.4746  139.0282  159.3305 C.3     1  UNL1        0.1124
     19 C         142.8237  137.9336  158.3663 C.3     1  UNL1        0.1164
     20 H         140.1266  135.9941  155.6906 H       1  UNL1        0.1510
     21 C         141.3042  134.8098  153.1956 C.3     1  UNL1        0.0230
     22 C         141.4009  134.5672  154.6726 C.3     1  UNL1        0.0910
     23 C         138.4396  144.7157  165.4132 C.3     1  UNL1        0.4187
     24 F         138.0905  145.8104  166.3776 F       1  UNL1       -0.1659
     25 F         139.8899  145.0826  165.5218 F       1  UNL1       -0.1659
     26 F         136.9893  144.3488  165.3046 F       1  UNL1       -0.1659
     27 N         138.0765  139.7537  163.9147 N.pl3   1  UNL1       -0.3290
     28 H         137.2061  139.4952  163.5342 H       1  UNL1        0.1471
     29 C         138.8721  138.7610  164.7094 C.3     1  UNL1        0.1145
     30 C         139.6094  139.2028  165.9388 C.ar    1  UNL1        0.0035
     31 C         141.1070  139.2868  165.9257 C.ar    1  UNL1       -0.0022
     32 C         141.8442  139.7286  167.1550 C.ar    1  UNL1        0.0060
     33 C         141.0838  140.0864  168.3976 C.ar    1  UNL1        0.0752
     34 C         139.5862  140.0023  168.4107 C.ar    1  UNL1        0.2898
     35 C         138.8490  139.5605  167.1813 C.ar    1  UNL1        0.0727
     36 N         138.8259  140.3601  169.6532 N.pl3   1  UNL1        0.0809
     37 O         137.7652  139.4369  170.1754 O.2     1  UNL1        0.0415
     38 O         139.1262  141.6411  170.3735 O.co2   1  UNL1       -0.5760
@<TRIPOS>UNITY_ATOM_ATTR
36 1
charge 1
38 1
charge -1
@<TRIPOS>BOND
     1    21    22    1
     2    22    11    1
     3    11    12   am
     4    12    13    2
     5    12    14   am
     6    14    15    1
     7    15    16    1
     8    16    17    1
     9    17     1    1
    10     1     2   ar
    11     2     3   ar
    12     3     4   ar
    13     4     5   ar
    14     5     6   ar
    15     6    23    1
    16    23    24    1
    17    23    25    1
    18    23    26    1
    19     6     7   ar
    20     7     8   ar
    21     8    27    1
    22    27    29    1
    23    29    30    1
    24    30    31   ar
    25    31    32   ar
    26    32    33   ar
    27    33    34   ar
    28    34    36    1
    29    36    37    2
    30    36    38    1
    31    34    35   ar
    32     8     9   ar
    33     9    10   ar
    34    17    18    1
    35    18    19    1
    36    19    14    1
    37    10     1   ar
    38     9     4   ar
    39    35    30   ar
    40    11    20    1
    41    27    28    1
@<TRIPOS>MOLECULE
*****
 38 41 0 0 0
SMALL
GASTEIGER

@<TRIPOS>ATOM
      1 C         141.5211  139.1746  160.4652 C.ar    1  UNL1        0.0674
      2 C         140.2714  138.3974  160.1752 C.ar    1  UNL1        0.1133
      3 N         139.3235  138.0592  161.2875 N.ar    1  UNL1       -0.2425
      4 C         139.6253  138.4983  162.6897 C.ar    1  UNL1        0.0825
      5 C         138.6774  138.1600  163.8019 C.ar    1  UNL1        0.0230
      6 C         138.9792  138.5991  165.2041 C.ar    1  UNL1        0.0741
      7 C         140.2290  139.3763  165.4941 C.ar    1  UNL1        0.0183
      8 C         141.1768  139.7145  164.3818 C.ar    1  UNL1        0.0463
      9 C         140.8750  139.2755  162.9796 C.ar    1  UNL1        0.0320
     10 C         141.8229  139.6137  161.8674 C.ar    1  UNL1        0.0188
     11 N         146.4636  141.4559  156.2679 N.am    1  UNL1       -0.2888
     12 C         145.3127  140.5275  156.0162 C.2     1  UNL1        0.3041
     13 O         145.1097  139.9372  154.6522 O.2     1  UNL1       -0.2526
     14 N         144.3648  140.1893  157.1284 N.am    1  UNL1       -0.2607
     15 C         144.5678  140.7796  158.4924 C.3     1  UNL1        0.1164
     16 C         143.6199  140.4413  159.6046 C.3     1  UNL1        0.1124
     17 N         142.4690  139.5129  159.3529 N.pl3   1  UNL1       -0.3028
     18 C         142.2660  138.9226  157.9890 C.3     1  UNL1        0.1124
     19 C         143.2139  139.2608  156.8767 C.3     1  UNL1        0.1164
     20 H         146.5968  141.8434  157.1631 H       1  UNL1        0.1510
     21 C         148.8863  141.8605  155.4212 C.3     1  UNL1        0.0230
     22 C         147.4115  141.7942  155.1556 C.3     1  UNL1        0.0910
     23 C         138.0313  138.2609  166.3164 C.3     1  UNL1        0.4187
     24 F         137.0834  137.9227  167.4287 F       1  UNL1       -0.1659
     25 F         137.8803  139.7196  166.6312 F       1  UNL1       -0.1659
     26 F         138.1824  136.8021  166.0016 F       1  UNL1       -0.1659
     27 N         142.4265  140.4918  164.6718 N.pl3   1  UNL1       -0.3290
     28 H         143.3037  140.1286  164.4110 H       1  UNL1        0.1471
     29 C         142.3398  141.8222  165.3590 C.3     1  UNL1        0.1145
     30 C         141.3325  142.8367  164.9049 C.ar    1  UNL1        0.0035
     31 C         140.1803  143.1996  165.7941 C.ar    1  UNL1       -0.0022
     32 C         139.1730  144.2140  165.3401 C.ar    1  UNL1        0.0060
     33 C         139.3178  144.8656  163.9967 C.ar    1  UNL1        0.0752
     34 C         140.4700  144.5027  163.1075 C.ar    1  UNL1        0.2898
     35 C         141.4773  143.4882  163.5616 C.ar    1  UNL1        0.0727
     36 N         140.6149  145.1542  161.7642 N.pl3   1  UNL1        0.0809
     37 O         139.5479  146.0807  161.2609 O.2     1  UNL1        0.0415
     38 O         141.8267  144.8793  160.9241 O.co2   1  UNL1       -0.5760
@<TRIPOS>UNITY_ATOM_ATTR
36 1
charge 1
38 1
charge -1
@<TRIPOS>BOND
     1    21    22    1
     2    22    11    1
     3    11    12   am
     4    12    13    2
     5    12    14   am
     6    14    15    1
     7    15    16    1
     8    16    17    1
     9    17     1    1
    10     1     2   ar
    11     2     3   ar
    12     3     4   ar
    13     4     5   ar
    14     5     6   ar
    15     6    23    1
    16    23    24    1
    17    23    25    1
    18    23    26    1
    19     6     7   ar
    20     7     8   ar
    21     8    27    1
    22    27    29    1
    23    29    30    1
    24    30    31   ar
    25    31    32   ar
    26    32    33   ar
    27    33    34   ar
    28    34    36    1
    29    36    37    2
    30    36    38    1
    31    34    35   ar
    32     8     9   ar
    33     9    10   ar
    34    17    18    1
    35    18    19    1
    36    19    14    1
    37    10     1   ar
    38     9     4   ar
    39    35    30   ar
    40    11    20    1
    41    27    28    1
@<TRIPOS>MOLECULE
*****
 38 41 0 0 0
SMALL
GASTEIGER

@<TRIPOS>ATOM
      1 C         142.9599  142.6890  160.8371 C.ar    1  UNL1        0.0674
      2 C         144.4461  142.6372  161.0336 C.ar    1  UNL1        0.1133
      3 N         145.0322  141.7497  162.0913 N.ar    1  UNL1       -0.2425
      4 C         144.1321  140.9140  162.9525 C.ar    1  UNL1        0.0825
      5 C         144.7183  140.0265  164.0103 C.ar    1  UNL1        0.0230
      6 C         143.8183  139.1909  164.8715 C.ar    1  UNL1        0.0741
      7 C         142.3321  139.2428  164.6749 C.ar    1  UNL1        0.0183
      8 C         141.7460  140.1303  163.6172 C.ar    1  UNL1        0.0463
      9 C         142.6460  140.9659  162.7560 C.ar    1  UNL1        0.0320
     10 C         142.0599  141.8534  161.6983 C.ar    1  UNL1        0.0188
     11 N         139.5314  147.2133  156.9606 N.am    1  UNL1       -0.2888
     12 C         140.6153  146.2389  156.6061 C.2     1  UNL1        0.3041
     13 O         141.1131  146.1520  155.1937 O.2     1  UNL1       -0.2526
     14 N         141.2015  145.3515  157.6638 N.am    1  UNL1       -0.2607
     15 C         140.7037  145.4384  159.0761 C.3     1  UNL1        0.1164
     16 C         141.2898  144.5509  160.1339 C.3     1  UNL1        0.1124
     17 N         142.3737  143.5765  159.7793 N.pl3   1  UNL1       -0.3028
     18 C         142.8715  143.4896  158.3670 C.3     1  UNL1        0.1124
     19 C         142.2854  144.3771  157.3092 C.3     1  UNL1        0.1164
     20 H         139.2047  147.2703  157.8876 H       1  UNL1        0.1510
     21 C         138.4934  149.4875  156.2532 C.3     1  UNL1        0.0230
     22 C         138.9453  148.1008  155.9029 C.3     1  UNL1        0.0910
     23 C         144.4044  138.3034  165.9292 C.3     1  UNL1        0.4187
     24 F         144.9905  137.4159  166.9870 F       1  UNL1       -0.1659
     25 F         143.0473  138.1448  166.5481 F       1  UNL1       -0.1659
     26 F         145.7615  138.4620  165.3103 F       1  UNL1       -0.1659
     27 N         140.2598  140.1821  163.4207 N.pl3   1  UNL1       -0.3290
     28 H         139.8857  140.2602  162.5134 H       1  UNL1        0.1471
     29 C         139.3437  140.1149  164.6065 C.3     1  UNL1        0.1145
     30 C         139.7136  140.8148  165.8807 C.ar    1  UNL1        0.0035
     31 C         139.9493  142.2961  165.8815 C.ar    1  UNL1       -0.0022
     32 C         140.3192  142.9960  167.1556 C.ar    1  UNL1        0.0060
     33 C         140.4536  142.2144  168.4289 C.ar    1  UNL1        0.0752
     34 C         140.2179  140.7330  168.4280 C.ar    1  UNL1        0.2898
     35 C         139.8479  140.0332  167.1539 C.ar    1  UNL1        0.0727
     36 N         140.3522  139.9515  169.7012 N.pl3   1  UNL1        0.0809
     37 O         141.6120  139.1875  169.9830 O.2     1  UNL1        0.0415
     38 O         139.2268  139.9339  170.6927 O.co2   1  UNL1       -0.5760
@<TRIPOS>UNITY_ATOM_ATTR
36 1
charge 1
38 1
charge -1
@<TRIPOS>BOND
     1    21    22    1
     2    22    11    1
     3    11    12   am
     4    12    13    2
     5    12    14   am
     6    14    15    1
     7    15    16    1
     8    16    17    1
     9    17     1    1
    10     1     2   ar
    11     2     3   ar
    12     3     4   ar
    13     4     5   ar
    14     5     6   ar
    15     6    23    1
    16    23    24    1
    17    23    25    1
    18    23    26    1
    19     6     7   ar
    20     7     8   ar
    21     8    27    1
    22    27    29    1
    23    29    30    1
    24    30    31   ar
    25    31    32   ar
    26    32    33   ar
    27    33    34   ar
    28    34    36    1
    29    36    37    2
    30    36    38    1
    31    34    35   ar
    32     8     9   ar
    33     9    10   ar
    34    17    18    1
    35    18    19    1
    36    19    14    1
    37    10     1   ar
    38     9     4   ar
    39    35    30   ar
    40    11    20    1
    41    27    28    1
@<TRIPOS>MOLECULE
*****
 38 41 0 0 0
SMALL
GASTEIGER

@<TRIPOS>ATOM
      1 C         142.8696  140.9138  163.0274 C.ar    1  UNL1        0.0674
      2 C         143.7629  141.3369  164.1556 C.ar    1  UNL1        0.1133
      3 N         143.2644  141.2793  165.5691 N.ar    1  UNL1       -0.2425
      4 C         141.8725  140.7984  165.8544 C.ar    1  UNL1        0.0825
      5 C         141.3740  140.7408  167.2680 C.ar    1  UNL1        0.0230
      6 C         139.9821  140.2600  167.5534 C.ar    1  UNL1        0.0741
      7 C         139.0887  139.8368  166.4251 C.ar    1  UNL1        0.0183
      8 C         139.5873  139.8944  165.0116 C.ar    1  UNL1        0.0463
      9 C         140.9792  140.3753  164.7263 C.ar    1  UNL1        0.0320
     10 C         141.4777  140.4329  163.3128 C.ar    1  UNL1        0.0188
     11 N         145.4466  142.4171  156.8347 N.am    1  UNL1       -0.2888
     12 C         144.8637  141.1442  157.3731 C.2     1  UNL1        0.3041
     13 O         144.7792  139.9289  156.4979 O.2     1  UNL1       -0.2526
     14 N         144.3652  141.0866  158.7866 N.am    1  UNL1       -0.2607
     15 C         144.4496  142.3019  159.6618 C.3     1  UNL1        0.1164
     16 C         143.9511  142.2443  161.0754 C.3     1  UNL1        0.1124
     17 N         143.3681  140.9714  161.6138 N.pl3   1  UNL1       -0.3028
     18 C         143.2837  139.7561  160.7386 C.3     1  UNL1        0.1124
     19 C         143.7822  139.8137  159.3251 C.3     1  UNL1        0.1164
     20 H         145.5020  143.2148  157.4091 H       1  UNL1        0.1510
     21 C         147.1578  143.2915  155.0863 C.3     1  UNL1        0.0230
     22 C         145.9451  142.4748  155.4211 C.3     1  UNL1        0.0910
     23 C         139.4835  140.2023  168.9669 C.3     1  UNL1        0.4187
     24 F         138.9850  140.1447  170.3805 F       1  UNL1       -0.1659
     25 F         140.7177  140.9172  169.4314 F       1  UNL1       -0.1659
     26 F         138.2494  139.4874  168.5025 F       1  UNL1       -0.1659
     27 N         138.6939  139.4713  163.8835 N.pl3   1  UNL1       -0.3290
     28 H         138.7414  138.5512  163.5365 H       1  UNL1        0.1471
     29 C         137.7282  140.4500  163.2839 C.3     1  UNL1        0.1145
     30 C         138.0570  141.9134  163.2667 C.ar    1  UNL1        0.0035
     31 C         137.6417  142.7889  164.4117 C.ar    1  UNL1       -0.0022
     32 C         137.9705  144.2523  164.3946 C.ar    1  UNL1        0.0060
     33 C         138.7147  144.8403  163.2325 C.ar    1  UNL1        0.0752
     34 C         139.1301  143.9648  162.0875 C.ar    1  UNL1        0.2898
     35 C         138.8012  142.5013  162.1046 C.ar    1  UNL1        0.0727
     36 N         139.8742  144.5527  160.9254 N.pl3   1  UNL1        0.0809
     37 O         140.8670  143.7187  160.1711 O.2     1  UNL1        0.0415
     38 O         139.6256  145.9746  160.5175 O.co2   1  UNL1       -0.5760
@<TRIPOS>UNITY_ATOM_ATTR
36 1
charge 1
38 1
charge -1
@<TRIPOS>BOND
     1    21    22    1
     2    22    11    1
     3    11    12   am
     4    12    13    2
     5    12    14   am
     6    14    15    1
     7    15    16    1
     8    16    17    1
     9    17     1    1
    10     1     2   ar
    11     2     3   ar
    12     3     4   ar
    13     4     5   ar
    14     5     6   ar
    15     6    23    1
    16    23    24    1
    17    23    25    1
    18    23    26    1
    19     6     7   ar
    20     7     8   ar
    21     8    27    1
    22    27    29    1
    23    29    30    1
    24    30    31   ar
    25    31    32   ar
    26    32    33   ar
    27    33    34   ar
    28    34    36    1
    29    36    37    2
    30    36    38    1
    31    34    35   ar
    32     8     9   ar
    33     9    10   ar
    34    17    18    1
    35    18    19    1
    36    19    14    1
    37    10     1   ar
    38     9     4   ar
    39    35    30   ar
    40    11    20    1
    41    27    28    1
@<TRIPOS>MOLECULE
*****
 38 41 0 0 0
SMALL
GASTEIGER

@<TRIPOS>ATOM
      1 C         143.2643  141.6780  163.8958 C.ar    1  UNL1        0.0674
      2 C         144.0421  142.6635  164.7166 C.ar    1  UNL1        0.1133
      3 N         143.7445  142.8227  166.1781 N.ar    1  UNL1       -0.2425
      4 C         142.6690  141.9963  166.8188 C.ar    1  UNL1        0.0825
      5 C         142.3714  142.1555  168.2804 C.ar    1  UNL1        0.0230
      6 C         141.2960  141.3292  168.9211 C.ar    1  UNL1        0.0741
      7 C         140.5181  140.3436  168.1002 C.ar    1  UNL1        0.0183
      8 C         140.8157  140.1845  166.6387 C.ar    1  UNL1        0.0463
      9 C         141.8912  141.0108  165.9980 C.ar    1  UNL1        0.0320
     10 C         142.1888  140.8517  164.5365 C.ar    1  UNL1        0.0188
     11 N         144.9522  142.2112  157.2537 N.am    1  UNL1       -0.2888
     12 C         144.4546  141.0412  158.0496 C.2     1  UNL1        0.3041
     13 O         144.2546  139.7120  157.3839 O.2     1  UNL1       -0.2526
     14 N         144.1570  141.2004  159.5111 N.am    1  UNL1       -0.2607
     15 C         144.3571  142.5297  160.1768 C.3     1  UNL1        0.1164
     16 C         144.0595  142.6888  161.6383 C.3     1  UNL1        0.1124
     17 N         143.5619  141.5188  162.4342 N.pl3   1  UNL1       -0.3028
     18 C         143.3618  140.1896  161.7685 C.3     1  UNL1        0.1124
     19 C         143.6594  140.0304  160.3070 C.3     1  UNL1        0.1164
     20 H         145.0835  143.0836  157.6907 H       1  UNL1        0.1510
     21 C         146.6592  142.1810  155.2953 C.3     1  UNL1        0.0230
     22 C         145.2498  142.0520  155.7922 C.3     1  UNL1        0.0910
     23 C         140.9983  141.4883  170.3826 C.3     1  UNL1        0.4187
     24 F         140.7007  141.6475  171.8442 F       1  UNL1       -0.1659
     25 F         142.4478  141.2706  170.7015 F       1  UNL1       -0.1659
     26 F         139.5489  141.7060  170.0637 F       1  UNL1       -0.1659
     27 N         140.0379  139.1990  165.8180 N.pl3   1  UNL1       -0.3290
     28 H         140.4513  138.3466  165.5501 H       1  UNL1        0.1471
     29 C         138.6302  139.5122  165.4053 C.3     1  UNL1        0.1145
     30 C         138.3747  140.4439  164.2578 C.ar    1  UNL1        0.0035
     31 C         138.0418  139.8919  162.9033 C.ar    1  UNL1       -0.0022
     32 C         137.7863  140.8235  161.7558 C.ar    1  UNL1        0.0060
     33 C         137.8637  142.3072  161.9628 C.ar    1  UNL1        0.0752
     34 C         138.1965  142.8592  163.3172 C.ar    1  UNL1        0.2898
     35 C         138.4520  141.9275  164.4647 C.ar    1  UNL1        0.0727
     36 N         138.2738  144.3428  163.5241 N.pl3   1  UNL1        0.0809
     37 O         138.2980  145.2648  162.3412 O.2     1  UNL1        0.0415
     38 O         138.3269  144.9044  164.9140 O.co2   1  UNL1       -0.5760
@<TRIPOS>UNITY_ATOM_ATTR
36 1
charge 1
38 1
charge -1
@<TRIPOS>BOND
     1    21    22    1
     2    22    11    1
     3    11    12   am
     4    12    13    2
     5    12    14   am
     6    14    15    1
     7    15    16    1
     8    16    17    1
     9    17     1    1
    10     1     2   ar
    11     2     3   ar
    12     3     4   ar
    13     4     5   ar
    14     5     6   ar
    15     6    23    1
    16    23    24    1
    17    23    25    1
    18    23    26    1
    19     6     7   ar
    20     7     8   ar
    21     8    27    1
    22    27    29    1
    23    29    30    1
    24    30    31   ar
    25    31    32   ar
    26    32    33   ar
    27    33    34   ar
    28    34    36    1
    29    36    37    2
    30    36    38    1
    31    34    35   ar
    32     8     9   ar
    33     9    10   ar
    34    17    18    1
    35    18    19    1
    36    19    14    1
    37    10     1   ar
    38     9     4   ar
    39    35    30   ar
    40    11    20    1
    41    27    28    1
