@<TRIPOS>MOLECULE
*****
 31 35 0 0 0
SMALL
GASTEIGER

@<TRIPOS>ATOM
      1 N         140.5064  140.4175  162.2019 N.3     1  UNL1       -0.2725
      2 C         139.5107  140.1883  163.3001 C.3     1  UNL1        0.0738
      3 C         139.9693  140.1235  164.7267 C.3     1  UNL1        0.0376
      4 C         141.4236  140.2878  165.0552 C.3     1  UNL1        0.0841
      5 C         142.4193  140.5170  163.9570 C.3     1  UNL1        0.0376
      6 C         141.9607  140.5818  162.5303 C.3     1  UNL1        0.0738
      7 N         141.8823  140.2230  166.4819 N.am    1  UNL1       -0.2423
      8 C         142.7781  139.1752  167.0733 C.2     1  UNL1        0.3309
      9 O         143.3725  138.0083  166.3419 O.2     1  UNL1       -0.2501
     10 N         142.9751  139.4992  168.5246 N.am    1  UNL1       -0.1647
     11 C         142.2011  140.7473  168.8302 C.2     1  UNL1        0.0706
     12 C         142.0241  141.5342  170.0947 C.3     1  UNL1        0.0705
     13 C         141.1716  142.7685  170.0970 C.2     1  UNL1       -0.0199
     14 C         140.4962  143.2157  168.8346 C.2     1  UNL1       -0.0029
     15 C         140.6733  142.4288  167.5699 C.2     1  UNL1        0.0156
     16 C         141.5257  141.1946  167.5677 C.2     1  UNL1        0.0668
     17 C         140.0477  140.4823  160.7751 C.3     1  UNL1        0.0739
     18 C         140.4969  141.6096  159.8934 C.3     1  UNL1        0.0392
     19 C         140.1044  143.0199  160.2206 C.3     1  UNL1        0.0997
     20 O         142.9714  143.8880  160.3850 O.2     1  UNL1       -0.2745
     21 C         142.0537  144.1056  161.5515 C.2     1  UNL1        0.2297
     22 C         142.5696  144.7573  162.8001 C.3     1  UNL1        0.0903
     23 C         141.6520  144.9749  163.9666 C.3     1  UNL1        0.0373
     24 C         140.2185  144.5409  163.8844 C.ar    1  UNL1       -0.0058
     25 C         139.3009  144.7585  165.0509 C.ar    1  UNL1       -0.0029
     26 C         137.8675  144.3245  164.9686 C.ar    1  UNL1        0.0021
     27 C         137.3516  143.6728  163.7200 C.ar    1  UNL1        0.0309
     28 C         138.2692  143.4551  162.5535 C.ar    1  UNL1        0.1534
     29 F         137.7533  142.8035  161.3048 F       1  UNL1       -0.2029
     30 C         139.7026  143.8892  162.6357 C.ar    1  UNL1        0.0773
     31 N         140.6203  143.6716  161.4692 N.am    1  UNL1       -0.2568
@<TRIPOS>BOND
     1    20    21    2
     2    21    22    1
     3    22    23    1
     4    23    24    1
     5    24    25   ar
     6    25    26   ar
     7    26    27   ar
     8    27    28   ar
     9    28    29    1
    10    28    30   ar
    11    30    31    1
    12    31    19    1
    13    19    18    1
    14    18    17    1
    15    17     1    1
    16     1     2    1
    17     2     3    1
    18     3     4    1
    19     4     7    1
    20     7     8   am
    21     8     9    2
    22     8    10    1
    23    10    11    2
    24    11    12    1
    25    12    13    1
    26    13    14    2
    27    14    15    1
    28    15    16    2
    29     4     5    1
    30     5     6    1
    31    31    21   am
    32     6     1    1
    33    30    24   ar
    34    16     7    1
    35    16    11    1
@<TRIPOS>MOLECULE
*****
 31 35 0 0 0
SMALL
GASTEIGER

@<TRIPOS>ATOM
      1 N         139.6864  141.2563  162.6549 N.3     1  UNL1       -0.2725
      2 C         139.0755  142.2004  163.6477 C.3     1  UNL1        0.0738
      3 C         139.2795  141.9788  165.1171 C.3     1  UNL1        0.0376
      4 C         140.0943  140.8132  165.5938 C.3     1  UNL1        0.0841
      5 C         140.7052  139.8691  164.6010 C.3     1  UNL1        0.0376
      6 C         140.5012  140.0907  163.1316 C.3     1  UNL1        0.0738
      7 N         140.2984  140.5915  167.0633 N.am    1  UNL1       -0.2423
      8 C         139.4205  139.7714  167.9615 C.2     1  UNL1        0.3309
      9 O         138.1845  139.0290  167.5480 O.2     1  UNL1       -0.2501
     10 N         139.9957  139.8241  169.3458 N.am    1  UNL1       -0.1647
     11 C         141.2291  140.6768  169.3032 C.2     1  UNL1        0.0706
     12 C         142.2060  141.0826  170.3665 C.3     1  UNL1        0.0705
     13 C         143.3700  141.9628  170.0193 C.2     1  UNL1       -0.0199
     14 C         143.5570  142.4370  168.6086 C.2     1  UNL1       -0.0029
     15 C         142.5801  142.0311  167.5452 C.2     1  UNL1        0.0156
     16 C         141.4161  141.1510  167.8925 C.2     1  UNL1        0.0668
     17 C         139.4823  141.4780  161.1854 C.3     1  UNL1        0.0739
     18 C         139.9341  142.7597  160.5505 C.3     1  UNL1        0.0392
     19 C         141.3893  143.1236  160.5486 C.3     1  UNL1        0.0997
     20 O         140.5407  145.6824  161.8648 O.2     1  UNL1       -0.2745
     21 C         141.6281  144.8492  162.4760 C.2     1  UNL1        0.2297
     22 C         142.2912  145.2955  163.7453 C.3     1  UNL1        0.0903
     23 C         143.3786  144.4625  164.3565 C.3     1  UNL1        0.0373
     24 C         143.8029  143.1830  163.6984 C.ar    1  UNL1       -0.0058
     25 C         144.8903  142.3500  164.3095 C.ar    1  UNL1       -0.0029
     26 C         145.3146  141.0706  163.6514 C.ar    1  UNL1        0.0021
     27 C         144.6515  140.6243  162.3821 C.ar    1  UNL1        0.0309
     28 C         143.5641  141.4574  161.7709 C.ar    1  UNL1        0.1534
     29 F         142.9010  141.0111  160.5017 F       1  UNL1       -0.2029
     30 C         143.1398  142.7367  162.4291 C.ar    1  UNL1        0.0773
     31 N         142.0524  143.5699  161.8179 N.am    1  UNL1       -0.2568
@<TRIPOS>BOND
     1    20    21    2
     2    21    22    1
     3    22    23    1
     4    23    24    1
     5    24    25   ar
     6    25    26   ar
     7    26    27   ar
     8    27    28   ar
     9    28    29    1
    10    28    30   ar
    11    30    31    1
    12    31    19    1
    13    19    18    1
    14    18    17    1
    15    17     1    1
    16     1     2    1
    17     2     3    1
    18     3     4    1
    19     4     7    1
    20     7     8   am
    21     8     9    2
    22     8    10    1
    23    10    11    2
    24    11    12    1
    25    12    13    1
    26    13    14    2
    27    14    15    1
    28    15    16    2
    29     4     5    1
    30     5     6    1
    31    31    21   am
    32     6     1    1
    33    30    24   ar
    34    16     7    1
    35    16    11    1
@<TRIPOS>MOLECULE
*****
 31 35 0 0 0
SMALL
GASTEIGER

@<TRIPOS>ATOM
      1 N         140.5064  140.9297  162.0021 N.3     1  UNL1       -0.2725
      2 C         140.2725  142.1021  162.9081 C.3     1  UNL1        0.0738
      3 C         140.1020  141.8881  164.3829 C.3     1  UNL1        0.0376
      4 C         140.1655  140.5016  164.9517 C.3     1  UNL1        0.0841
      5 C         140.3994  139.3292  164.0458 C.3     1  UNL1        0.0376
      6 C         140.5698  139.5432  162.5710 C.3     1  UNL1        0.0738
      7 N         139.9950  140.2875  166.4266 N.am    1  UNL1       -0.2423
      8 C         138.8464  139.5858  167.0888 C.2     1  UNL1        0.3309
      9 O         137.6666  138.9751  166.3924 O.2     1  UNL1       -0.2501
     10 N         139.0848  139.6022  168.5696 N.am    1  UNL1       -0.1647
     11 C         140.3807  140.3140  168.8227 C.2     1  UNL1        0.0706
     12 C         141.1211  140.6311  170.0880 C.3     1  UNL1        0.0705
     13 C         142.4242  141.3719  170.0289 C.2     1  UNL1       -0.0199
     14 C         142.9867  141.7954  168.7045 C.2     1  UNL1       -0.0029
     15 C         142.2462  141.4782  167.4391 C.2     1  UNL1        0.0156
     16 C         140.9432  140.7375  167.4983 C.2     1  UNL1        0.0668
     17 C         140.6768  141.1438  160.5273 C.3     1  UNL1        0.0739
     18 C         141.9376  140.7008  159.8459 C.3     1  UNL1        0.0392
     19 C         143.2571  141.2831  160.2579 C.3     1  UNL1        0.0997
     20 O         144.1205  138.5688  161.1997 O.2     1  UNL1       -0.2745
     21 C         144.1844  139.7418  162.1325 C.2     1  UNL1        0.2297
     22 C         144.6800  139.5576  163.5362 C.3     1  UNL1        0.0903
     23 C         144.7440  140.7305  164.4690 C.3     1  UNL1        0.0373
     24 C         144.3123  142.0877  163.9981 C.ar    1  UNL1       -0.0058
     25 C         144.3762  143.2606  164.9309 C.ar    1  UNL1       -0.0029
     26 C         143.9446  144.6177  164.4599 C.ar    1  UNL1        0.0021
     27 C         143.4489  144.8019  163.0562 C.ar    1  UNL1        0.0309
     28 C         143.3850  143.6290  162.1234 C.ar    1  UNL1        0.1534
     29 F         142.8894  143.8132  160.7197 F       1  UNL1       -0.2029
     30 C         143.8167  142.2719  162.5944 C.ar    1  UNL1        0.0773
     31 N         143.7527  141.0989  161.6616 N.am    1  UNL1       -0.2568
@<TRIPOS>BOND
     1    20    21    2
     2    21    22    1
     3    22    23    1
     4    23    24    1
     5    24    25   ar
     6    25    26   ar
     7    26    27   ar
     8    27    28   ar
     9    28    29    1
    10    28    30   ar
    11    30    31    1
    12    31    19    1
    13    19    18    1
    14    18    17    1
    15    17     1    1
    16     1     2    1
    17     2     3    1
    18     3     4    1
    19     4     7    1
    20     7     8   am
    21     8     9    2
    22     8    10    1
    23    10    11    2
    24    11    12    1
    25    12    13    1
    26    13    14    2
    27    14    15    1
    28    15    16    2
    29     4     5    1
    30     5     6    1
    31    31    21   am
    32     6     1    1
    33    30    24   ar
    34    16     7    1
    35    16    11    1
@<TRIPOS>MOLECULE
*****
 31 35 0 0 0
SMALL
GASTEIGER

@<TRIPOS>ATOM
      1 N         139.5023  138.5393  164.4663 N.3     1  UNL1       -0.2725
      2 C         140.8705  138.5348  165.0812 C.3     1  UNL1        0.0738
      3 C         141.0849  139.1373  166.4380 C.3     1  UNL1        0.0376
      4 C         139.9312  139.7442  167.1799 C.3     1  UNL1        0.0841
      5 C         138.5631  139.7487  166.5650 C.3     1  UNL1        0.0376
      6 C         138.3486  139.1462  165.2082 C.3     1  UNL1        0.0738
      7 N         140.1456  140.3467  168.5368 N.am    1  UNL1       -0.2423
      8 C         139.2214  140.2243  169.7119 C.2     1  UNL1        0.3309
      9 O         137.9205  139.4779  169.7365 O.2     1  UNL1       -0.2501
     10 N         139.8265  140.9793  170.8581 N.am    1  UNL1       -0.1647
     11 C         141.1248  141.5683  170.3915 C.2     1  UNL1        0.0706
     12 C         142.1527  142.4101  171.0875 C.3     1  UNL1        0.0705
     13 C         143.3780  142.8610  170.3489 C.2     1  UNL1       -0.0199
     14 C         143.5752  142.4700  168.9142 C.2     1  UNL1       -0.0029
     15 C         142.5472  141.6282  168.2182 C.2     1  UNL1        0.0156
     16 C         141.3219  141.1773  168.9568 C.2     1  UNL1        0.0668
     17 C         139.2879  137.9368  163.1094 C.3     1  UNL1        0.0739
     18 C         138.7652  138.7835  161.9869 C.3     1  UNL1        0.0392
     19 C         139.4246  140.0915  161.6642 C.3     1  UNL1        0.0997
     20 O         136.8715  141.4533  162.4564 O.2     1  UNL1       -0.2745
     21 C         138.1700  141.8729  163.0794 C.2     1  UNL1        0.2297
     22 C         138.1919  142.9734  164.0984 C.3     1  UNL1        0.0903
     23 C         139.4902  143.3929  164.7214 C.3     1  UNL1        0.0373
     24 C         140.7668  142.7120  164.3253 C.ar    1  UNL1       -0.0058
     25 C         142.0652  143.1316  164.9483 C.ar    1  UNL1       -0.0029
     26 C         143.3417  142.4507  164.5523 C.ar    1  UNL1        0.0021
     27 C         143.3198  141.3503  163.5332 C.ar    1  UNL1        0.0309
     28 C         142.0214  140.9307  162.9102 C.ar    1  UNL1        0.1534
     29 F         141.9996  139.8302  161.8911 F       1  UNL1       -0.2029
     30 C         140.7449  141.6116  163.3063 C.ar    1  UNL1        0.0773
     31 N         139.4465  141.1920  162.6833 N.am    1  UNL1       -0.2568
@<TRIPOS>BOND
     1    20    21    2
     2    21    22    1
     3    22    23    1
     4    23    24    1
     5    24    25   ar
     6    25    26   ar
     7    26    27   ar
     8    27    28   ar
     9    28    29    1
    10    28    30   ar
    11    30    31    1
    12    31    19    1
    13    19    18    1
    14    18    17    1
    15    17     1    1
    16     1     2    1
    17     2     3    1
    18     3     4    1
    19     4     7    1
    20     7     8   am
    21     8     9    2
    22     8    10    1
    23    10    11    2
    24    11    12    1
    25    12    13    1
    26    13    14    2
    27    14    15    1
    28    15    16    2
    29     4     5    1
    30     5     6    1
    31    31    21   am
    32     6     1    1
    33    30    24   ar
    34    16     7    1
    35    16    11    1
@<TRIPOS>MOLECULE
*****
 31 35 0 0 0
SMALL
GASTEIGER

@<TRIPOS>ATOM
      1 N         139.4984  138.6862  164.2612 N.3     1  UNL1       -0.2725
      2 C         140.8419  138.5884  164.9212 C.3     1  UNL1        0.0738
      3 C         141.0422  139.1434  166.3003 C.3     1  UNL1        0.0376
      4 C         139.8990  139.7961  167.0193 C.3     1  UNL1        0.0841
      5 C         138.5556  139.8939  166.3593 C.3     1  UNL1        0.0376
      6 C         138.3553  139.3389  164.9803 C.3     1  UNL1        0.0738
      7 N         140.0992  140.3511  168.3985 N.am    1  UNL1       -0.2423
      8 C         139.1706  140.1749  169.5632 C.2     1  UNL1        0.3309
      9 O         137.8787  139.4127  169.5534 O.2     1  UNL1       -0.2501
     10 N         139.7607  140.8946  170.7395 N.am    1  UNL1       -0.1647
     11 C         141.0541  141.5157  170.3018 C.2     1  UNL1        0.0706
     12 C         142.0683  142.3436  171.0337 C.3     1  UNL1        0.0705
     13 C         143.2918  142.8358  170.3188 C.2     1  UNL1       -0.0199
     14 C         143.5009  142.4998  168.8720 C.2     1  UNL1       -0.0029
     15 C         142.4867  141.6718  168.1400 C.2     1  UNL1        0.0156
     16 C         141.2633  141.1798  168.8550 C.2     1  UNL1        0.0668
     17 C         139.2982  138.1312  162.8821 C.3     1  UNL1        0.0739
     18 C         140.1437  138.6240  161.7453 C.3     1  UNL1        0.0392
     19 C         140.2357  140.0939  161.4612 C.3     1  UNL1        0.0997
     20 O         143.1738  139.9818  162.0571 O.2     1  UNL1       -0.2745
     21 C         142.2989  140.9632  162.7793 C.2     1  UNL1        0.2297
     22 C         142.8931  141.8885  163.7995 C.3     1  UNL1        0.0903
     23 C         142.0183  142.8698  164.5217 C.3     1  UNL1        0.0373
     24 C         140.5492  142.9259  164.2238 C.ar    1  UNL1       -0.0058
     25 C         139.6744  143.9072  164.9460 C.ar    1  UNL1       -0.0029
     26 C         138.2054  143.9633  164.6480 C.ar    1  UNL1        0.0021
     27 C         137.6112  143.0380  163.6279 C.ar    1  UNL1        0.0309
     28 C         138.4860  142.0566  162.9057 C.ar    1  UNL1        0.1534
     29 F         137.8918  141.1313  161.8855 F       1  UNL1       -0.2029
     30 C         139.9550  142.0006  163.2036 C.ar    1  UNL1        0.0773
     31 N         140.8299  141.0192  162.4814 N.am    1  UNL1       -0.2568
@<TRIPOS>BOND
     1    20    21    2
     2    21    22    1
     3    22    23    1
     4    23    24    1
     5    24    25   ar
     6    25    26   ar
     7    26    27   ar
     8    27    28   ar
     9    28    29    1
    10    28    30   ar
    11    30    31    1
    12    31    19    1
    13    19    18    1
    14    18    17    1
    15    17     1    1
    16     1     2    1
    17     2     3    1
    18     3     4    1
    19     4     7    1
    20     7     8   am
    21     8     9    2
    22     8    10    1
    23    10    11    2
    24    11    12    1
    25    12    13    1
    26    13    14    2
    27    14    15    1
    28    15    16    2
    29     4     5    1
    30     5     6    1
    31    31    21   am
    32     6     1    1
    33    30    24   ar
    34    16     7    1
    35    16    11    1
@<TRIPOS>MOLECULE
*****
 31 35 0 0 0
SMALL
GASTEIGER

@<TRIPOS>ATOM
      1 N         141.6701  140.3351  161.6730 N.3     1  UNL1       -0.2725
      2 C         141.5853  141.7894  162.0306 C.3     1  UNL1        0.0738
      3 C         141.9540  142.2450  163.4113 C.3     1  UNL1        0.0376
      4 C         142.4074  141.2462  164.4345 C.3     1  UNL1        0.0841
      5 C         142.4922  139.7919  164.0769 C.3     1  UNL1        0.0376
      6 C         142.1235  139.3364  162.6961 C.3     1  UNL1        0.0738
      7 N         142.7760  141.7018  165.8153 N.am    1  UNL1       -0.2423
      8 C         143.8115  142.7319  166.1568 C.2     1  UNL1        0.3309
      9 O         144.6600  143.4875  165.1776 O.2     1  UNL1       -0.2501
     10 N         143.8493  142.8739  167.6496 N.am    1  UNL1       -0.1647
     11 C         142.8373  141.9315  168.2307 C.2     1  UNL1        0.0706
     12 C         142.4340  141.6394  169.6456 C.3     1  UNL1        0.0705
     13 C         141.3674  140.6228  169.9269 C.2     1  UNL1       -0.0199
     14 C         140.7042  139.8984  168.7933 C.2     1  UNL1       -0.0029
     15 C         141.1074  140.1905  167.3783 C.2     1  UNL1        0.0156
     16 C         142.1740  141.2071  167.0970 C.2     1  UNL1        0.0668
     17 C         141.3015  139.8796  160.2921 C.3     1  UNL1        0.0739
     18 C         139.9857  140.2832  159.6955 C.3     1  UNL1        0.0392
     19 C         138.7076  139.9635  160.4125 C.3     1  UNL1        0.0997
     20 O         137.9836  142.8743  160.4689 O.2     1  UNL1       -0.2745
     21 C         138.0300  142.0881  161.7455 C.2     1  UNL1        0.2297
     22 C         137.7143  142.7573  163.0503 C.3     1  UNL1        0.0903
     23 C         137.7606  141.9711  164.3269 C.3     1  UNL1        0.0373
     24 C         138.1226  140.5157  164.2988 C.ar    1  UNL1       -0.0058
     25 C         138.1689  139.7295  165.5754 C.ar    1  UNL1       -0.0029
     26 C         138.5309  138.2742  165.5472 C.ar    1  UNL1        0.0021
     27 C         138.8465  137.6049  164.2423 C.ar    1  UNL1        0.0309
     28 C         138.8002  138.3911  162.9657 C.ar    1  UNL1        0.1534
     29 F         139.1158  137.7219  161.6609 F       1  UNL1       -0.2029
     30 C         138.4382  139.8465  162.9939 C.ar    1  UNL1        0.0773
     31 N         138.3919  140.6327  161.7173 N.am    1  UNL1       -0.2568
@<TRIPOS>BOND
     1    20    21    2
     2    21    22    1
     3    22    23    1
     4    23    24    1
     5    24    25   ar
     6    25    26   ar
     7    26    27   ar
     8    27    28   ar
     9    28    29    1
    10    28    30   ar
    11    30    31    1
    12    31    19    1
    13    19    18    1
    14    18    17    1
    15    17     1    1
    16     1     2    1
    17     2     3    1
    18     3     4    1
    19     4     7    1
    20     7     8   am
    21     8     9    2
    22     8    10    1
    23    10    11    2
    24    11    12    1
    25    12    13    1
    26    13    14    2
    27    14    15    1
    28    15    16    2
    29     4     5    1
    30     5     6    1
    31    31    21   am
    32     6     1    1
    33    30    24   ar
    34    16     7    1
    35    16    11    1
@<TRIPOS>MOLECULE
*****
 31 35 0 0 0
SMALL
GASTEIGER

@<TRIPOS>ATOM
      1 N         141.9791  140.3113  161.7991 N.3     1  UNL1       -0.2725
      2 C         140.6408  140.9376  162.0572 C.3     1  UNL1        0.0738
      3 C         140.0029  140.8136  163.4091 C.3     1  UNL1        0.0376
      4 C         140.7033  140.0633  164.5028 C.3     1  UNL1        0.0841
      5 C         142.0416  139.4370  164.2447 C.3     1  UNL1        0.0376
      6 C         142.6795  139.5610  162.8928 C.3     1  UNL1        0.0738
      7 N         140.0654  139.9392  165.8548 N.am    1  UNL1       -0.2423
      8 C         139.0330  138.9265  166.2530 C.2     1  UNL1        0.3309
      9 O         138.4571  137.8601  165.3693 O.2     1  UNL1       -0.2501
     10 N         138.6775  139.1675  167.6902 N.am    1  UNL1       -0.1647
     11 C         139.4902  140.3292  168.1803 C.2     1  UNL1        0.0706
     12 C         139.5601  141.0142  169.5128 C.3     1  UNL1        0.0705
     13 C         140.4877  142.1763  169.7111 C.2     1  UNL1       -0.0199
     14 C         141.3454  142.6532  168.5767 C.2     1  UNL1       -0.0029
     15 C         141.2756  141.9681  167.2442 C.2     1  UNL1        0.0156
     16 C         140.3480  140.8061  167.0459 C.2     1  UNL1        0.0668
     17 C         142.6170  140.4354  160.4471 C.3     1  UNL1        0.0739
     18 C         144.0328  140.9161  160.3271 C.3     1  UNL1        0.0392
     19 C         144.3756  142.3340  160.6763 C.3     1  UNL1        0.0997
     20 O         146.0675  141.5564  163.0286 O.2     1  UNL1       -0.2745
     21 C         144.9007  142.4802  163.2165 C.2     1  UNL1        0.2297
     22 C         144.5799  143.0153  164.5807 C.3     1  UNL1        0.0903
     23 C         143.4132  143.9390  164.7687 C.3     1  UNL1        0.0373
     24 C         142.5672  144.3278  163.5925 C.ar    1  UNL1       -0.0058
     25 C         141.4005  145.2516  163.7806 C.ar    1  UNL1       -0.0029
     26 C         140.5546  145.6403  162.6045 C.ar    1  UNL1        0.0021
     27 C         140.8754  145.1053  161.2403 C.ar    1  UNL1        0.0309
     28 C         142.0421  144.1815  161.0523 C.ar    1  UNL1        0.1534
     29 F         142.3629  143.6465  159.6882 F       1  UNL1       -0.2029
     30 C         142.8880  143.7928  162.2284 C.ar    1  UNL1        0.0773
     31 N         144.0548  142.8690  162.0404 N.am    1  UNL1       -0.2568
@<TRIPOS>BOND
     1    20    21    2
     2    21    22    1
     3    22    23    1
     4    23    24    1
     5    24    25   ar
     6    25    26   ar
     7    26    27   ar
     8    27    28   ar
     9    28    29    1
    10    28    30   ar
    11    30    31    1
    12    31    19    1
    13    19    18    1
    14    18    17    1
    15    17     1    1
    16     1     2    1
    17     2     3    1
    18     3     4    1
    19     4     7    1
    20     7     8   am
    21     8     9    2
    22     8    10    1
    23    10    11    2
    24    11    12    1
    25    12    13    1
    26    13    14    2
    27    14    15    1
    28    15    16    2
    29     4     5    1
    30     5     6    1
    31    31    21   am
    32     6     1    1
    33    30    24   ar
    34    16     7    1
    35    16    11    1
@<TRIPOS>MOLECULE
*****
 31 35 0 0 0
SMALL
GASTEIGER

@<TRIPOS>ATOM
      1 N         138.0187  139.3775  162.5604 N.3     1  UNL1       -0.2725
      2 C         138.7689  138.2870  163.2661 C.3     1  UNL1        0.0738
      3 C         139.2700  138.5042  164.6631 C.3     1  UNL1        0.0376
      4 C         139.0211  139.8119  165.3544 C.3     1  UNL1        0.0841
      5 C         138.2709  140.9024  164.6487 C.3     1  UNL1        0.0376
      6 C         137.7697  140.6852  163.2517 C.3     1  UNL1        0.0738
      7 N         139.5223  140.0291  166.7514 N.am    1  UNL1       -0.2423
      8 C         138.8828  139.5157  168.0074 C.2     1  UNL1        0.3309
      9 O         137.6299  138.6948  168.0869 O.2     1  UNL1       -0.2501
     10 N         139.7163  139.9672  169.1699 N.am    1  UNL1       -0.1647
     11 C         140.8709  140.7597  168.6324 C.2     1  UNL1        0.0706
     12 C         142.0158  141.4514  169.3109 C.3     1  UNL1        0.0705
     13 C         143.0410  142.1815  168.4948 C.2     1  UNL1       -0.0199
     14 C         142.9211  142.2197  167.0001 C.2     1  UNL1       -0.0029
     15 C         141.7761  141.5280  166.3216 C.2     1  UNL1        0.0156
     16 C         140.7510  140.7980  167.1378 C.2     1  UNL1        0.0668
     17 C         137.5175  139.1603  161.1634 C.3     1  UNL1        0.0739
     18 C         137.8648  140.1393  160.0813 C.3     1  UNL1        0.0392
     19 C         139.3021  140.4135  159.7510 C.3     1  UNL1        0.0997
     20 O         138.9095  143.3266  160.3507 O.2     1  UNL1       -0.2745
     21 C         139.9879  142.5551  161.0521 C.2     1  UNL1        0.2297
     22 C         140.8700  143.2402  162.0534 C.3     1  UNL1        0.0903
     23 C         141.9484  142.4688  162.7548 C.3     1  UNL1        0.0373
     24 C         142.1447  141.0122  162.4549 C.ar    1  UNL1       -0.0058
     25 C         143.2231  140.2408  163.1563 C.ar    1  UNL1       -0.0029
     26 C         143.4193  138.7843  162.8564 C.ar    1  UNL1        0.0021
     27 C         142.5372  138.0992  161.8552 C.ar    1  UNL1        0.0309
     28 C         141.4589  138.8706  161.1538 C.ar    1  UNL1        0.1534
     29 F         140.5768  138.1854  160.1526 F       1  UNL1       -0.2029
     30 C         141.2626  140.3271  161.4537 C.ar    1  UNL1        0.0773
     31 N         140.1842  141.0986  160.7523 N.am    1  UNL1       -0.2568
@<TRIPOS>BOND
     1    20    21    2
     2    21    22    1
     3    22    23    1
     4    23    24    1
     5    24    25   ar
     6    25    26   ar
     7    26    27   ar
     8    27    28   ar
     9    28    29    1
    10    28    30   ar
    11    30    31    1
    12    31    19    1
    13    19    18    1
    14    18    17    1
    15    17     1    1
    16     1     2    1
    17     2     3    1
    18     3     4    1
    19     4     7    1
    20     7     8   am
    21     8     9    2
    22     8    10    1
    23    10    11    2
    24    11    12    1
    25    12    13    1
    26    13    14    2
    27    14    15    1
    28    15    16    2
    29     4     5    1
    30     5     6    1
    31    31    21   am
    32     6     1    1
    33    30    24   ar
    34    16     7    1
    35    16    11    1
@<TRIPOS>MOLECULE
*****
 31 35 0 0 0
SMALL
GASTEIGER

@<TRIPOS>ATOM
      1 N         143.0364  139.6954  163.1098 N.3     1  UNL1       -0.2725
      2 C         143.3609  138.7404  164.2200 C.3     1  UNL1        0.0738
      3 C         142.5908  138.7959  165.5060 C.3     1  UNL1        0.0376
      4 C         141.4963  139.8064  165.6818 C.3     1  UNL1        0.0841
      5 C         141.1718  140.7613  164.5715 C.3     1  UNL1        0.0376
      6 C         141.9419  140.7059  163.2855 C.3     1  UNL1        0.0738
      7 N         140.7261  139.8619  166.9678 N.am    1  UNL1       -0.2423
      8 C         139.2641  139.5703  167.1333 C.2     1  UNL1        0.3309
      9 O         138.3154  139.1719  166.0418 O.2     1  UNL1       -0.2501
     10 N         138.9172  139.7469  168.5819 N.am    1  UNL1       -0.1647
     11 C         140.1649  140.1477  169.3118 C.2     1  UNL1        0.0706
     12 C         140.4275  140.4571  170.7557 C.3     1  UNL1        0.0705
     13 C         141.8081  140.8377  171.2023 C.2     1  UNL1       -0.0199
     14 C         142.9260  140.9087  170.2047 C.2     1  UNL1       -0.0029
     15 C         142.6634  140.5992  168.7607 C.2     1  UNL1        0.0156
     16 C         141.2829  140.2188  168.3142 C.2     1  UNL1        0.0668
     17 C         143.8066  139.6399  161.8237 C.3     1  UNL1        0.0739
     18 C         144.0271  138.3242  161.1378 C.3     1  UNL1        0.0392
     19 C         142.8742  137.6098  160.4973 C.3     1  UNL1        0.0997
     20 O         143.3518  138.8929  157.8278 O.2     1  UNL1       -0.2745
     21 C         142.0189  139.0356  158.5009 C.2     1  UNL1        0.2297
     22 C         140.9247  139.8198  157.8392 C.3     1  UNL1        0.0903
     23 C         139.5918  139.9625  158.5122 C.3     1  UNL1        0.0373
     24 C         139.3530  139.3210  159.8469 C.ar    1  UNL1       -0.0058
     25 C         138.0201  139.4637  160.5199 C.ar    1  UNL1       -0.0029
     26 C         137.7813  138.8222  161.8546 C.ar    1  UNL1        0.0021
     27 C         138.8755  138.0379  162.5163 C.ar    1  UNL1        0.0309
     28 C         140.2084  137.8952  161.8433 C.ar    1  UNL1        0.1534
     29 F         141.3025  137.1110  162.5050 F       1  UNL1       -0.2029
     30 C         140.4471  138.5367  160.5086 C.ar    1  UNL1        0.0773
     31 N         141.7801  138.3940  159.8356 N.am    1  UNL1       -0.2568
@<TRIPOS>BOND
     1    20    21    2
     2    21    22    1
     3    22    23    1
     4    23    24    1
     5    24    25   ar
     6    25    26   ar
     7    26    27   ar
     8    27    28   ar
     9    28    29    1
    10    28    30   ar
    11    30    31    1
    12    31    19    1
    13    19    18    1
    14    18    17    1
    15    17     1    1
    16     1     2    1
    17     2     3    1
    18     3     4    1
    19     4     7    1
    20     7     8   am
    21     8     9    2
    22     8    10    1
    23    10    11    2
    24    11    12    1
    25    12    13    1
    26    13    14    2
    27    14    15    1
    28    15    16    2
    29     4     5    1
    30     5     6    1
    31    31    21   am
    32     6     1    1
    33    30    24   ar
    34    16     7    1
    35    16    11    1
