@<TRIPOS>MOLECULE
*****
 35 38 0 0 0
SMALL
GASTEIGER

@<TRIPOS>ATOM
      1 C         140.9192  143.8780  161.0363 C.ar    1  UNL1        0.0185
      2 C         140.3053  144.6906  162.1375 C.ar    1  UNL1        0.0017
      3 C         140.4386  144.2437  163.5631 C.ar    1  UNL1        0.0046
      4 C         141.1858  142.9841  163.8875 C.ar    1  UNL1        0.0537
      5 C         141.7997  142.1715  162.7862 C.ar    1  UNL1        0.0046
      6 C         141.6663  142.6184  161.3606 C.ar    1  UNL1        0.0017
      7 C         140.5194  145.2189  156.7592 C.ar    1  UNL1        0.0139
      8 C         141.6121  145.7779  157.6215 C.ar    1  UNL1        0.0959
      9 N         141.7454  145.3310  159.0472 N.ar    1  UNL1       -0.2433
     10 C         140.7859  144.3250  159.6106 C.ar    1  UNL1        0.0918
     11 C         139.6932  143.7659  158.7483 C.ar    1  UNL1        0.0750
     12 CL        138.7338  142.7599  159.3118 Cl      1  UNL1       -0.0807
     13 C         139.5599  144.2129  157.3226 C.ar    1  UNL1        0.0115
     14 C         140.3861  145.6658  155.3336 C.3     1  UNL1        0.1008
     15 N         139.3066  149.9347  154.4055 N.3     1  UNL1       -0.2703
     16 C         138.7500  149.2694  155.6292 C.3     1  UNL1        0.0897
     17 C         139.1098  147.8464  155.9386 C.3     1  UNL1        0.0899
     18 N         140.0263  147.0888  155.0243 N.3     1  UNL1       -0.2665
     19 C         140.5830  147.7541  153.8006 C.3     1  UNL1        0.0899
     20 C         140.2231  149.1771  153.4912 C.3     1  UNL1        0.0897
     21 C         138.5410  152.2861  155.2021 C.3     1  UNL1        0.0188
     22 C         138.9468  151.3577  154.0961 C.3     1  UNL1        0.0722
     23 C         141.3191  142.5371  165.3132 C.2     1  UNL1        0.2495
     24 O         140.1601  142.6782  166.2548 O.2     1  UNL1       -0.2698
     25 N         142.6114  141.9491  165.7971 N.am    1  UNL1       -0.2794
     26 H         143.3721  141.8565  165.1791 H       1  UNL1        0.1552
     27 C         142.7446  141.5022  167.2228 C.ar    1  UNL1        0.0636
     28 C         143.3019  142.4388  168.2534 C.ar    1  UNL1        0.0159
     29 C         143.4351  141.9919  169.6791 C.ar    1  UNL1        0.0014
     30 C         143.0111  140.6084  170.0741 C.ar    1  UNL1        0.0013
     31 C         142.4538  139.6718  169.0435 C.ar    1  UNL1        0.0153
     32 C         142.3205  140.1187  167.6178 C.ar    1  UNL1        0.0552
     33 N         141.7632  139.1821  166.5872 N.pl3   1  UNL1       -0.3560
     34 H         141.4849  138.2740  166.8465 H       1  UNL1        0.1424
     35 H         141.6758  139.4754  165.6515 H       1  UNL1        0.1424
@<TRIPOS>BOND
     1    21    22    1
     2    22    15    1
     3    15    16    1
     4    16    17    1
     5    17    18    1
     6    18    14    1
     7    14     7    1
     8     7     8   ar
     9     8     9   ar
    10     9    10   ar
    11    10     1    1
    12     1     2   ar
    13     2     3   ar
    14     3     4   ar
    15     4    23    1
    16    23    24    2
    17    23    25   am
    18    25    27    1
    19    27    28   ar
    20    28    29   ar
    21    29    30   ar
    22    30    31   ar
    23    31    32   ar
    24    32    33    1
    25     4     5   ar
    26     5     6   ar
    27    10    11   ar
    28    11    12    1
    29    11    13   ar
    30    18    19    1
    31    19    20    1
    32    20    15    1
    33    13     7   ar
    34     6     1   ar
    35    32    27   ar
    36    25    26    1
    37    33    34    1
    38    33    35    1
@<TRIPOS>MOLECULE
*****
 35 38 0 0 0
SMALL
GASTEIGER

@<TRIPOS>ATOM
      1 C         140.9207  138.8157  162.0254 C.ar    1  UNL1        0.0185
      2 C         140.5746  137.7591  163.0323 C.ar    1  UNL1        0.0017
      3 C         140.3861  138.1296  164.4735 C.ar    1  UNL1        0.0046
      4 C         140.5438  139.5566  164.9079 C.ar    1  UNL1        0.0537
      5 C         140.8899  140.6132  163.9011 C.ar    1  UNL1        0.0046
      6 C         141.0783  140.2428  162.4599 C.ar    1  UNL1        0.0017
      7 C         141.4861  137.7045  157.7015 C.ar    1  UNL1        0.0139
      8 C         140.1318  138.1140  158.1998 C.ar    1  UNL1        0.0959
      9 N         139.9433  138.4844  159.6411 N.ar    1  UNL1       -0.2433
     10 C         141.1092  138.4453  160.5841 C.ar    1  UNL1        0.0918
     11 C         142.4634  138.0358  160.0859 C.ar    1  UNL1        0.0750
     12 CL        143.6292  137.9967  161.0289 Cl      1  UNL1       -0.0807
     13 C         142.6519  137.6654  158.6446 C.ar    1  UNL1        0.0115
     14 C         141.6745  137.3341  156.2603 C.3     1  UNL1        0.1008
     15 N         142.8669  133.1388  155.1526 N.3     1  UNL1       -0.2703
     16 C         141.5388  133.6813  154.7148 C.3     1  UNL1        0.0897
     17 C         141.1413  135.0798  155.0841 C.3     1  UNL1        0.0899
     18 N         142.0720  135.9357  155.8910 N.3     1  UNL1       -0.2665
     19 C         143.4001  135.3931  156.3288 C.3     1  UNL1        0.0899
     20 C         143.7975  133.9947  155.9596 C.3     1  UNL1        0.0897
     21 C         144.3800  131.0588  155.5188 C.3     1  UNL1        0.0188
     22 C         143.2643  131.7403  154.7834 C.3     1  UNL1        0.0722
     23 C         140.3553  139.9270  166.3492 C.2     1  UNL1        0.2495
     24 O         139.1219  139.4879  167.0813 O.2     1  UNL1       -0.2698
     25 N         141.4001  140.7365  167.0584 N.am    1  UNL1       -0.2794
     26 H         142.2097  141.0246  166.5779 H       1  UNL1        0.1552
     27 C         141.2116  141.1068  168.4997 C.ar    1  UNL1        0.0636
     28 C         140.3027  142.2413  168.8698 C.ar    1  UNL1        0.0159
     29 C         140.1142  142.6116  170.3111 C.ar    1  UNL1        0.0014
     30 C         140.8346  141.8476  171.3822 C.ar    1  UNL1        0.0013
     31 C         141.7434  140.7132  171.0121 C.ar    1  UNL1        0.0153
     32 C         141.9320  140.3428  169.5708 C.ar    1  UNL1        0.0552
     33 N         142.8409  139.2084  169.2007 N.pl3   1  UNL1       -0.3560
     34 H         143.3137  138.7069  169.9037 H       1  UNL1        0.1424
     35 H         142.9646  138.9653  168.2547 H       1  UNL1        0.1424
@<TRIPOS>BOND
     1    21    22    1
     2    22    15    1
     3    15    16    1
     4    16    17    1
     5    17    18    1
     6    18    14    1
     7    14     7    1
     8     7     8   ar
     9     8     9   ar
    10     9    10   ar
    11    10     1    1
    12     1     2   ar
    13     2     3   ar
    14     3     4   ar
    15     4    23    1
    16    23    24    2
    17    23    25   am
    18    25    27    1
    19    27    28   ar
    20    28    29   ar
    21    29    30   ar
    22    30    31   ar
    23    31    32   ar
    24    32    33    1
    25     4     5   ar
    26     5     6   ar
    27    10    11   ar
    28    11    12    1
    29    11    13   ar
    30    18    19    1
    31    19    20    1
    32    20    15    1
    33    13     7   ar
    34     6     1   ar
    35    32    27   ar
    36    25    26    1
    37    33    34    1
    38    33    35    1
@<TRIPOS>MOLECULE
*****
 35 38 0 0 0
SMALL
GASTEIGER

@<TRIPOS>ATOM
      1 C         139.8078  143.2009  160.8821 C.ar    1  UNL1        0.0185
      2 C         140.6179  144.4529  161.0439 C.ar    1  UNL1        0.0017
      3 C         140.8965  145.3247  159.8555 C.ar    1  UNL1        0.0046
      4 C         140.3651  144.9444  158.5053 C.ar    1  UNL1        0.0537
      5 C         139.5550  143.6924  158.3435 C.ar    1  UNL1        0.0046
      6 C         139.2763  142.8207  159.5319 C.ar    1  UNL1        0.0017
      7 C         138.9718  140.5854  164.4474 C.ar    1  UNL1        0.0139
      8 C         139.9953  140.1671  163.4337 C.ar    1  UNL1        0.0959
      9 N         140.2739  141.0389  162.2453 N.ar    1  UNL1       -0.2433
     10 C         139.5291  142.3291  162.0706 C.ar    1  UNL1        0.0918
     11 C         138.5056  142.7475  163.0841 C.ar    1  UNL1        0.0750
     12 CL        137.7608  144.0377  162.9093 Cl      1  UNL1       -0.0807
     13 C         138.2269  141.8757  164.2726 C.ar    1  UNL1        0.0115
     14 C         138.6931  139.7136  165.6357 C.3     1  UNL1        0.1008
     15 N         141.3187  139.9723  169.2812 N.3     1  UNL1       -0.2703
     16 C         139.8267  140.0240  169.4263 C.3     1  UNL1        0.0897
     17 C         138.9515  139.9378  168.2112 C.3     1  UNL1        0.0899
     18 N         139.5683  139.7999  166.8509 N.3     1  UNL1       -0.2665
     19 C         141.0603  139.7482  166.7057 C.3     1  UNL1        0.0899
     20 C         141.9355  139.8344  167.9209 C.3     1  UNL1        0.0897
     21 C         143.4381  140.8958  170.4666 C.3     1  UNL1        0.0188
     22 C         142.1939  140.0585  170.4963 C.3     1  UNL1        0.0722
     23 C         140.6438  145.8163  157.3169 C.2     1  UNL1        0.2495
     24 O         142.0496  146.2413  157.0117 O.2     1  UNL1       -0.2698
     25 N         139.5167  146.2630  156.4336 N.am    1  UNL1       -0.2794
     26 H         138.5941  145.9840  156.6339 H       1  UNL1        0.1552
     27 C         139.7955  147.1348  155.2453 C.ar    1  UNL1        0.0636
     28 C         140.5632  146.5887  154.0780 C.ar    1  UNL1        0.0159
     29 C         140.8419  147.4604  152.8896 C.ar    1  UNL1        0.0014
     30 C         140.3529  148.8783  152.8684 C.ar    1  UNL1        0.0013
     31 C         139.5852  149.4245  154.0356 C.ar    1  UNL1        0.0153
     32 C         139.3065  148.5527  155.2241 C.ar    1  UNL1        0.0552
     33 N         138.5388  149.0988  156.3912 N.pl3   1  UNL1       -0.3560
     34 H         138.2178  150.0294  156.3773 H       1  UNL1        0.1424
     35 H         138.3558  148.5266  157.1712 H       1  UNL1        0.1424
@<TRIPOS>BOND
     1    21    22    1
     2    22    15    1
     3    15    16    1
     4    16    17    1
     5    17    18    1
     6    18    14    1
     7    14     7    1
     8     7     8   ar
     9     8     9   ar
    10     9    10   ar
    11    10     1    1
    12     1     2   ar
    13     2     3   ar
    14     3     4   ar
    15     4    23    1
    16    23    24    2
    17    23    25   am
    18    25    27    1
    19    27    28   ar
    20    28    29   ar
    21    29    30   ar
    22    30    31   ar
    23    31    32   ar
    24    32    33    1
    25     4     5   ar
    26     5     6   ar
    27    10    11   ar
    28    11    12    1
    29    11    13   ar
    30    18    19    1
    31    19    20    1
    32    20    15    1
    33    13     7   ar
    34     6     1   ar
    35    32    27   ar
    36    25    26    1
    37    33    34    1
    38    33    35    1
@<TRIPOS>MOLECULE
*****
 35 38 0 0 0
SMALL
GASTEIGER

@<TRIPOS>ATOM
      1 C         141.0217  138.8516  162.0210 C.ar    1  UNL1        0.0185
      2 C         140.6515  137.8014  163.0260 C.ar    1  UNL1        0.0017
      3 C         140.4624  138.1752  164.4663 C.ar    1  UNL1        0.0046
      4 C         140.6435  139.5991  164.9016 C.ar    1  UNL1        0.0537
      5 C         141.0137  140.6493  163.8966 C.ar    1  UNL1        0.0046
      6 C         141.2027  140.2755  162.4563 C.ar    1  UNL1        0.0017
      7 C         141.5891  137.7303  157.7000 C.ar    1  UNL1        0.0139
      8 C         142.7382  137.6275  158.6587 C.ar    1  UNL1        0.0959
      9 N         142.5490  138.0012  160.0990 N.ar    1  UNL1       -0.2433
     10 C         141.2108  138.4778  160.5806 C.ar    1  UNL1        0.0918
     11 C         140.0617  138.5806  159.6220 C.ar    1  UNL1        0.0750
     12 CL        138.7235  139.0572  160.1037 Cl      1  UNL1       -0.0807
     13 C         140.2508  138.2068  158.1817 C.ar    1  UNL1        0.0115
     14 C         141.7782  137.3565  156.2597 C.3     1  UNL1        0.1008
     15 N         142.8406  133.1259  155.1538 N.3     1  UNL1       -0.2703
     16 C         143.8233  133.9739  155.9055 C.3     1  UNL1        0.0897
     17 C         143.4692  135.3841  156.2741 C.3     1  UNL1        0.0899
     18 N         142.1323  135.9463  155.8911 N.3     1  UNL1       -0.2665
     19 C         141.1496  135.0983  155.1394 C.3     1  UNL1        0.0899
     20 C         141.5038  133.6880  154.7708 C.3     1  UNL1        0.0897
     21 C         144.4081  131.0665  155.3822 C.3     1  UNL1        0.0188
     22 C         143.1947  131.7157  154.7852 C.3     1  UNL1        0.0722
     23 C         140.4544  139.9729  166.3420 C.2     1  UNL1        0.2495
     24 O         139.2592  139.4707  167.0964 O.2     1  UNL1       -0.2698
     25 N         141.4605  140.8489  167.0278 N.am    1  UNL1       -0.2794
     26 H         142.2449  141.1785  166.5327 H       1  UNL1        0.1552
     27 C         141.2713  141.2226  168.4681 C.ar    1  UNL1        0.0636
     28 C         140.4036  142.3908  168.8322 C.ar    1  UNL1        0.0159
     29 C         140.2144  142.7645  170.2725 C.ar    1  UNL1        0.0014
     30 C         140.8930  141.9701  171.3488 C.ar    1  UNL1        0.0013
     31 C         141.7607  140.8020  170.9848 C.ar    1  UNL1        0.0153
     32 C         141.9499  140.4282  169.5445 C.ar    1  UNL1        0.0552
     33 N         142.8176  139.2601  169.1805 N.pl3   1  UNL1       -0.3560
     34 H         143.2629  138.7387  169.8869 H       1  UNL1        0.1424
     35 H         142.9417  139.0148  168.2352 H       1  UNL1        0.1424
@<TRIPOS>BOND
     1    21    22    1
     2    22    15    1
     3    15    16    1
     4    16    17    1
     5    17    18    1
     6    18    14    1
     7    14     7    1
     8     7     8   ar
     9     8     9   ar
    10     9    10   ar
    11    10     1    1
    12     1     2   ar
    13     2     3   ar
    14     3     4   ar
    15     4    23    1
    16    23    24    2
    17    23    25   am
    18    25    27    1
    19    27    28   ar
    20    28    29   ar
    21    29    30   ar
    22    30    31   ar
    23    31    32   ar
    24    32    33    1
    25     4     5   ar
    26     5     6   ar
    27    10    11   ar
    28    11    12    1
    29    11    13   ar
    30    18    19    1
    31    19    20    1
    32    20    15    1
    33    13     7   ar
    34     6     1   ar
    35    32    27   ar
    36    25    26    1
    37    33    34    1
    38    33    35    1
@<TRIPOS>MOLECULE
*****
 35 38 0 0 0
SMALL
GASTEIGER

@<TRIPOS>ATOM
      1 C         142.9434  140.9424  159.6877 C.ar    1  UNL1        0.0185
      2 C         143.8169  142.1604  159.6295 C.ar    1  UNL1        0.0017
      3 C         144.7604  142.3523  158.4793 C.ar    1  UNL1        0.0046
      4 C         144.8305  141.3261  157.3875 C.ar    1  UNL1        0.0537
      5 C         143.9570  140.1081  157.4457 C.ar    1  UNL1        0.0046
      6 C         143.0135  139.9162  158.5958 C.ar    1  UNL1        0.0017
      7 C         140.1126  140.3666  163.1381 C.ar    1  UNL1        0.0139
      8 C         139.6560  141.0904  161.9061 C.ar    1  UNL1        0.0959
      9 N         140.5996  141.2823  160.7561 N.ar    1  UNL1       -0.2433
     10 C         141.9998  140.7504  160.8379 C.ar    1  UNL1        0.0918
     11 C         142.4564  140.0266  162.0698 C.ar    1  UNL1        0.0750
     12 CL        143.8565  139.4948  162.1516 Cl      1  UNL1       -0.0807
     13 C         141.5127  139.8347  163.2200 C.ar    1  UNL1        0.0115
     14 C         139.1690  140.1746  164.2882 C.3     1  UNL1        0.1008
     15 N         140.2026  141.8230  168.3459 N.3     1  UNL1       -0.2703
     16 C         140.2735  142.7076  167.1367 C.3     1  UNL1        0.0897
     17 C         139.9290  142.1582  165.7841 C.3     1  UNL1        0.0899
     18 N         139.5135  140.7241  165.6408 N.3     1  UNL1       -0.2665
     19 C         139.4426  139.8394  166.8500 C.3     1  UNL1        0.0899
     20 C         139.7871  140.3888  168.2025 C.3     1  UNL1        0.0897
     21 C         140.5768  143.8556  169.9202 C.3     1  UNL1        0.0188
     22 C         140.5471  142.3724  169.6985 C.3     1  UNL1        0.0722
     23 C         145.7741  141.5181  156.2373 C.2     1  UNL1        0.2495
     24 O         145.5205  140.8193  154.9345 O.2     1  UNL1       -0.2698
     25 N         146.9713  142.4088  156.3900 N.am    1  UNL1       -0.2794
     26 H         147.1378  142.8674  157.2451 H       1  UNL1        0.1552
     27 C         147.9149  142.6007  155.2398 C.ar    1  UNL1        0.0636
     28 C         149.1361  141.7380  155.1196 C.ar    1  UNL1        0.0159
     29 C         150.0797  141.9299  153.9695 C.ar    1  UNL1        0.0014
     30 C         149.8020  142.9845  152.9395 C.ar    1  UNL1        0.0013
     31 C         148.5808  143.8471  153.0597 C.ar    1  UNL1        0.0153
     32 C         147.6372  143.6552  154.2098 C.ar    1  UNL1        0.0552
     33 N         146.4160  144.5178  154.3300 N.pl3   1  UNL1       -0.3560
     34 H         146.2337  145.2100  153.6540 H       1  UNL1        0.1424
     35 H         145.7967  144.3919  155.0849 H       1  UNL1        0.1424
@<TRIPOS>BOND
     1    21    22    1
     2    22    15    1
     3    15    16    1
     4    16    17    1
     5    17    18    1
     6    18    14    1
     7    14     7    1
     8     7     8   ar
     9     8     9   ar
    10     9    10   ar
    11    10     1    1
    12     1     2   ar
    13     2     3   ar
    14     3     4   ar
    15     4    23    1
    16    23    24    2
    17    23    25   am
    18    25    27    1
    19    27    28   ar
    20    28    29   ar
    21    29    30   ar
    22    30    31   ar
    23    31    32   ar
    24    32    33    1
    25     4     5   ar
    26     5     6   ar
    27    10    11   ar
    28    11    12    1
    29    11    13   ar
    30    18    19    1
    31    19    20    1
    32    20    15    1
    33    13     7   ar
    34     6     1   ar
    35    32    27   ar
    36    25    26    1
    37    33    34    1
    38    33    35    1
@<TRIPOS>MOLECULE
*****
 35 38 0 0 0
SMALL
GASTEIGER

@<TRIPOS>ATOM
      1 C         141.6472  138.8987  161.7923 C.ar    1  UNL1        0.0185
      2 C         141.6414  140.3207  162.2695 C.ar    1  UNL1        0.0017
      3 C         141.7602  140.6207  163.7344 C.ar    1  UNL1        0.0046
      4 C         141.8849  139.4986  164.7220 C.ar    1  UNL1        0.0537
      5 C         141.8907  138.0766  164.2448 C.ar    1  UNL1        0.0046
      6 C         141.7719  137.7766  162.7800 C.ar    1  UNL1        0.0017
      7 C         141.2907  137.9986  157.3976 C.ar    1  UNL1        0.0139
      8 C         142.6437  138.0695  158.0414 C.ar    1  UNL1        0.0959
      9 N         142.7625  138.3695  159.5062 N.ar    1  UNL1       -0.2433
     10 C         141.5283  138.5986  160.3274 C.ar    1  UNL1        0.0918
     11 C         140.1754  138.5278  159.6837 C.ar    1  UNL1        0.0750
     12 CL        138.9412  138.7569  160.5049 Cl      1  UNL1       -0.0807
     13 C         140.0565  138.2277  158.2188 C.ar    1  UNL1        0.0115
     14 C         141.1719  137.6986  155.9328 C.3     1  UNL1        0.1008
     15 N         142.4295  133.6781  154.3502 N.3     1  UNL1       -0.2703
     16 C         141.7956  134.6807  153.4321 C.3     1  UNL1        0.0897
     17 C         141.3764  136.0208  153.9596 C.3     1  UNL1        0.0899
     18 N         141.5911  136.3584  155.4053 N.3     1  UNL1       -0.2665
     19 C         142.2250  135.3559  156.3234 C.3     1  UNL1        0.0899
     20 C         142.6442  134.0157  155.7959 C.3     1  UNL1        0.0897
     21 C         143.3680  131.2909  154.7629 C.3     1  UNL1        0.0188
     22 C         142.8488  132.3380  153.8227 C.3     1  UNL1        0.0722
     23 C         142.0038  139.7986  166.1870 C.2     1  UNL1        0.2495
     24 O         142.8196  138.9037  167.0720 O.2     1  UNL1       -0.2698
     25 N         141.3067  140.9936  166.7668 N.am    1  UNL1       -0.2794
     26 H         140.7712  141.5810  166.1859 H       1  UNL1        0.1552
     27 C         141.4256  141.2936  168.2316 C.ar    1  UNL1        0.0636
     28 C         142.5116  142.2030  168.7253 C.ar    1  UNL1        0.0159
     29 C         142.6305  142.5030  170.1901 C.ar    1  UNL1        0.0014
     30 C         141.6634  141.8936  171.1614 C.ar    1  UNL1        0.0013
     31 C         140.5775  140.9841  170.6678 C.ar    1  UNL1        0.0153
     32 C         140.4586  140.6841  169.2029 C.ar    1  UNL1        0.0552
     33 N         139.3726  139.7747  168.7093 N.pl3   1  UNL1       -0.3560
     34 H         138.7379  139.3747  169.3468 H       1  UNL1        0.1424
     35 H         139.2946  139.5778  167.7479 H       1  UNL1        0.1424
@<TRIPOS>BOND
     1    21    22    1
     2    22    15    1
     3    15    16    1
     4    16    17    1
     5    17    18    1
     6    18    14    1
     7    14     7    1
     8     7     8   ar
     9     8     9   ar
    10     9    10   ar
    11    10     1    1
    12     1     2   ar
    13     2     3   ar
    14     3     4   ar
    15     4    23    1
    16    23    24    2
    17    23    25   am
    18    25    27    1
    19    27    28   ar
    20    28    29   ar
    21    29    30   ar
    22    30    31   ar
    23    31    32   ar
    24    32    33    1
    25     4     5   ar
    26     5     6   ar
    27    10    11   ar
    28    11    12    1
    29    11    13   ar
    30    18    19    1
    31    19    20    1
    32    20    15    1
    33    13     7   ar
    34     6     1   ar
    35    32    27   ar
    36    25    26    1
    37    33    34    1
    38    33    35    1
@<TRIPOS>MOLECULE
*****
 35 38 0 0 0
SMALL
GASTEIGER

@<TRIPOS>ATOM
      1 C         141.3196  139.0168  161.5788 C.ar    1  UNL1        0.0185
      2 C         141.5063  137.9437  162.6100 C.ar    1  UNL1        0.0017
      3 C         141.5138  138.2974  164.0676 C.ar    1  UNL1        0.0046
      4 C         141.3346  139.7243  164.4940 C.ar    1  UNL1        0.0537
      5 C         141.1478  140.7975  163.4628 C.ar    1  UNL1        0.0046
      6 C         141.1403  140.4437  162.0052 C.ar    1  UNL1        0.0017
      7 C         141.2969  137.9555  157.2057 C.ar    1  UNL1        0.0139
      8 C         140.0081  138.0083  157.9714 C.ar    1  UNL1        0.0959
      9 N         140.0157  138.3621  159.4290 N.ar    1  UNL1       -0.2433
     10 C         141.3120  138.6630  160.1210 C.ar    1  UNL1        0.0918
     11 C         142.6008  138.6102  159.3554 C.ar    1  UNL1        0.0750
     12 CL        143.8972  138.9112  160.0474 Cl      1  UNL1       -0.0807
     13 C         142.5933  138.2565  157.8977 C.ar    1  UNL1        0.0115
     14 C         141.2894  137.6018  155.7480 C.3     1  UNL1        0.1008
     15 N         142.6080  133.5098  154.4188 N.3     1  UNL1       -0.2703
     16 C         142.1192  134.5052  153.4088 C.3     1  UNL1        0.0897
     17 C         141.6796  135.8692  153.8518 C.3     1  UNL1        0.0899
     18 N         141.7289  136.2378  155.3050 N.3     1  UNL1       -0.2665
     19 C         142.2177  135.2424  156.3150 C.3     1  UNL1        0.0899
     20 C         142.6572  133.8784  155.8720 C.3     1  UNL1        0.0897
     21 C         142.6307  131.6228  152.6331 C.3     1  UNL1        0.0188
     22 C         143.0475  132.1458  153.9758 C.3     1  UNL1        0.0722
     23 C         141.3421  140.0781  165.9518 C.2     1  UNL1        0.2495
     24 O         142.2503  139.3477  166.8961 O.2     1  UNL1       -0.2698
     25 N         140.4415  141.1622  166.4651 N.am    1  UNL1       -0.2794
     26 H         139.8454  141.6415  165.8453 H       1  UNL1        0.1552
     27 C         140.4490  141.5159  167.9227 C.ar    1  UNL1        0.0636
     28 C         141.2362  142.6989  168.4034 C.ar    1  UNL1        0.0159
     29 C         141.2438  143.0526  169.8611 C.ar    1  UNL1        0.0014
     30 C         140.4642  142.2233  170.8381 C.ar    1  UNL1        0.0013
     31 C         139.6771  141.0404  170.3575 C.ar    1  UNL1        0.0153
     32 C         139.6695  140.6866  168.8998 C.ar    1  UNL1        0.0552
     33 N         138.8824  139.5037  168.4192 N.pl3   1  UNL1       -0.3560
     34 H         138.3707  138.9594  169.0605 H       1  UNL1        0.1424
     35 H         138.8774  139.2715  167.4625 H       1  UNL1        0.1424
@<TRIPOS>BOND
     1    21    22    1
     2    22    15    1
     3    15    16    1
     4    16    17    1
     5    17    18    1
     6    18    14    1
     7    14     7    1
     8     7     8   ar
     9     8     9   ar
    10     9    10   ar
    11    10     1    1
    12     1     2   ar
    13     2     3   ar
    14     3     4   ar
    15     4    23    1
    16    23    24    2
    17    23    25   am
    18    25    27    1
    19    27    28   ar
    20    28    29   ar
    21    29    30   ar
    22    30    31   ar
    23    31    32   ar
    24    32    33    1
    25     4     5   ar
    26     5     6   ar
    27    10    11   ar
    28    11    12    1
    29    11    13   ar
    30    18    19    1
    31    19    20    1
    32    20    15    1
    33    13     7   ar
    34     6     1   ar
    35    32    27   ar
    36    25    26    1
    37    33    34    1
    38    33    35    1
@<TRIPOS>MOLECULE
*****
 35 38 0 0 0
SMALL
GASTEIGER

@<TRIPOS>ATOM
      1 C         141.9191  143.9175  161.8249 C.ar    1  UNL1        0.0185
      2 C         142.8230  144.6746  162.7520 C.ar    1  UNL1        0.0017
      3 C         143.0209  144.1992  164.1608 C.ar    1  UNL1        0.0046
      4 C         142.3148  142.9666  164.6425 C.ar    1  UNL1        0.0537
      5 C         141.4108  142.2094  163.7154 C.ar    1  UNL1        0.0046
      6 C         141.2129  142.6849  162.3066 C.ar    1  UNL1        0.0017
      7 C         141.3254  145.3438  157.5984 C.ar    1  UNL1        0.0139
      8 C         142.4242  144.3730  157.9150 C.ar    1  UNL1        0.0959
      9 N         142.6220  143.8975  159.3238 N.ar    1  UNL1       -0.2433
     10 C         141.7212  144.3930  160.4161 C.ar    1  UNL1        0.0918
     11 C         140.6224  145.3638  160.0995 C.ar    1  UNL1        0.0750
     12 CL        139.7216  145.8592  161.1917 Cl      1  UNL1       -0.0807
     13 C         140.4245  145.8393  158.6906 C.ar    1  UNL1        0.0115
     14 C         141.1275  145.8193  156.1896 C.3     1  UNL1        0.1008
     15 N         137.8954  144.0070  153.6363 N.3     1  UNL1       -0.2703
     16 C         137.5336  144.9373  154.7559 C.3     1  UNL1        0.0897
     17 C         138.6109  145.5413  155.6070 C.3     1  UNL1        0.0899
     18 N         140.0502  145.2152  155.3385 N.3     1  UNL1       -0.2665
     19 C         140.4120  144.2849  154.2188 C.3     1  UNL1        0.0899
     20 C         139.3347  143.6808  153.3678 C.3     1  UNL1        0.0897
     21 C         135.8290  142.4515  153.3906 C.3     1  UNL1        0.0188
     22 C         136.8181  143.4029  152.7852 C.3     1  UNL1        0.0722
     23 C         142.5127  142.4911  166.0514 C.2     1  UNL1        0.2495
     24 O         143.7831  142.8142  166.7805 O.2     1  UNL1       -0.2698
     25 N         141.4402  141.6926  166.7311 N.am    1  UNL1       -0.2794
     26 H         140.6064  141.4805  166.2525 H       1  UNL1        0.1552
     27 C         141.6381  141.2172  168.1399 C.ar    1  UNL1        0.0636
     28 C         142.3225  139.9080  168.4005 C.ar    1  UNL1        0.0159
     29 C         142.5204  139.4326  169.8093 C.ar    1  UNL1        0.0014
     30 C         142.0340  140.2663  170.9575 C.ar    1  UNL1        0.0013
     31 C         141.3497  141.5753  170.6970 C.ar    1  UNL1        0.0153
     32 C         141.1518  142.0508  169.2881 C.ar    1  UNL1        0.0552
     33 N         140.4674  143.3599  169.0275 N.pl3   1  UNL1       -0.3560
     34 H         140.1482  143.9071  169.7812 H       1  UNL1        0.1424
     35 H         140.3375  143.6720  168.1029 H       1  UNL1        0.1424
@<TRIPOS>BOND
     1    21    22    1
     2    22    15    1
     3    15    16    1
     4    16    17    1
     5    17    18    1
     6    18    14    1
     7    14     7    1
     8     7     8   ar
     9     8     9   ar
    10     9    10   ar
    11    10     1    1
    12     1     2   ar
    13     2     3   ar
    14     3     4   ar
    15     4    23    1
    16    23    24    2
    17    23    25   am
    18    25    27    1
    19    27    28   ar
    20    28    29   ar
    21    29    30   ar
    22    30    31   ar
    23    31    32   ar
    24    32    33    1
    25     4     5   ar
    26     5     6   ar
    27    10    11   ar
    28    11    12    1
    29    11    13   ar
    30    18    19    1
    31    19    20    1
    32    20    15    1
    33    13     7   ar
    34     6     1   ar
    35    32    27   ar
    36    25    26    1
    37    33    34    1
    38    33    35    1
@<TRIPOS>MOLECULE
*****
 35 38 0 0 0
SMALL
GASTEIGER

@<TRIPOS>ATOM
      1 C         143.0171  141.3384  161.6288 C.ar    1  UNL1        0.0185
      2 C         141.6028  141.0832  162.0584 C.ar    1  UNL1        0.0017
      3 C         141.2869  140.8679  163.5088 C.ar    1  UNL1        0.0046
      4 C         142.3852  140.9077  164.5296 C.ar    1  UNL1        0.0537
      5 C         143.7995  141.1629  164.1000 C.ar    1  UNL1        0.0046
      6 C         144.1154  141.3782  162.6496 C.ar    1  UNL1        0.0017
      7 C         143.9650  141.9844  157.2774 C.ar    1  UNL1        0.0139
      8 C         143.6845  143.1596  158.1664 C.ar    1  UNL1        0.0959
      9 N         143.3685  142.9442  159.6168 N.ar    1  UNL1       -0.2433
     10 C         143.3331  141.5537  160.1783 C.ar    1  UNL1        0.0918
     11 C         143.6135  140.3786  159.2893 C.ar    1  UNL1        0.0750
     12 CL        143.5781  138.9881  159.8507 Cl      1  UNL1       -0.0807
     13 C         143.9295  140.5939  157.8388 C.ar    1  UNL1        0.0115
     14 C         144.2810  142.1998  155.8270 C.3     1  UNL1        0.1008
     15 N         148.5094  141.7501  154.3544 N.3     1  UNL1       -0.2703
     16 C         147.3626  141.6004  153.3992 C.3     1  UNL1        0.0897
     17 C         145.9531  141.7503  153.8900 C.3     1  UNL1        0.0899
     18 N         145.6904  142.0499  155.3361 N.3     1  UNL1       -0.2665
     19 C         146.8372  142.1995  156.2913 C.3     1  UNL1        0.0899
     20 C         148.2467  142.0496  155.8005 C.3     1  UNL1        0.0897
     21 C         151.0651  142.0214  154.7344 C.3     1  UNL1        0.0188
     22 C         149.9188  141.6002  153.8635 C.3     1  UNL1        0.0722
     23 C         142.0693  140.6924  165.9801 C.2     1  UNL1        0.2495
     24 O         142.1381  139.3133  166.5660 O.2     1  UNL1       -0.2698
     25 N         141.6844  141.8562  166.8447 N.am    1  UNL1       -0.2794
     26 H         141.6392  142.7614  166.4602 H       1  UNL1        0.1552
     27 C         141.3685  141.6408  168.2951 C.ar    1  UNL1        0.0636
     28 C         140.0427  141.0651  168.6965 C.ar    1  UNL1        0.0159
     29 C         139.7268  140.8497  170.1469 C.ar    1  UNL1        0.0014
     30 C         140.7365  141.2100  171.1960 C.ar    1  UNL1        0.0013
     31 C         142.0622  141.7857  170.7947 C.ar    1  UNL1        0.0153
     32 C         142.3782  142.0011  169.3442 C.ar    1  UNL1        0.0552
     33 N         143.7039  142.5769  168.9429 N.pl3   1  UNL1       -0.3560
     34 H         144.3666  142.8134  169.6315 H       1  UNL1        0.1424
     35 H         143.9113  142.7182  167.9909 H       1  UNL1        0.1424
@<TRIPOS>BOND
     1    21    22    1
     2    22    15    1
     3    15    16    1
     4    16    17    1
     5    17    18    1
     6    18    14    1
     7    14     7    1
     8     7     8   ar
     9     8     9   ar
    10     9    10   ar
    11    10     1    1
    12     1     2   ar
    13     2     3   ar
    14     3     4   ar
    15     4    23    1
    16    23    24    2
    17    23    25   am
    18    25    27    1
    19    27    28   ar
    20    28    29   ar
    21    29    30   ar
    22    30    31   ar
    23    31    32   ar
    24    32    33    1
    25     4     5   ar
    26     5     6   ar
    27    10    11   ar
    28    11    12    1
    29    11    13   ar
    30    18    19    1
    31    19    20    1
    32    20    15    1
    33    13     7   ar
    34     6     1   ar
    35    32    27   ar
    36    25    26    1
    37    33    34    1
    38    33    35    1
