@<TRIPOS>MOLECULE
*****
 20 21 0 0 0
SMALL
GASTEIGER

@<TRIPOS>ATOM
      1 C         139.3163  140.6690  166.1208 C.3     1  UNL1        0.0358
      2 C         139.9045  142.0338  166.3243 C.3     1  UNL1        0.0055
      3 C         139.5982  143.3036  165.5867 C.3     1  UNL1        0.0018
      4 C         138.6283  143.5221  164.4637 C.3     1  UNL1        0.0171
      5 C         137.7248  142.5249  163.8008 C.3     1  UNL1        0.0686
      6 N         137.5684  141.0628  164.0972 N.3     1  UNL1       -0.2972
      7 C         138.2767  140.2369  165.1298 C.3     1  UNL1        0.0726
      8 H         137.7760  140.5992  163.2127 H       1  UNL1        0.1233
      9 C         140.2864  140.4505  167.2439 C.ar    1  UNL1       -0.0205
     10 C         141.5771  139.7296  166.9906 C.ar    1  UNL1       -0.0033
     11 C         142.5472  139.5111  168.1137 C.ar    1  UNL1        0.0119
     12 C         142.2264  140.0137  169.4901 C.ar    1  UNL1        0.0682
     13 CL        143.1964  139.7952  170.6133 Cl      1  UNL1       -0.0814
     14 C         140.9357  140.7346  169.7435 C.ar    1  UNL1        0.0679
     15 CL        140.6150  141.2372  171.1199 Cl      1  UNL1       -0.0814
     16 C         139.9657  140.9531  168.6204 C.ar    1  UNL1        0.0080
     17 C         139.1599  139.2069  166.4173 C.3     1  UNL1        0.0371
     18 O         137.3689  138.3129  168.0735 O.3     1  UNL1       -0.3820
     19 C         137.7968  138.6350  166.6724 C.3     1  UNL1        0.1375
     20 H         136.4677  137.9542  168.0620 H       1  UNL1        0.2104
@<TRIPOS>BOND
     1    18    19    1
     2    19    17    1
     3     1    17    1
     4     1     9    1
     5     9    10   ar
     6    10    11   ar
     7    11    12   ar
     8    12    13    1
     9    12    14   ar
    10    14    15    1
    11    14    16   ar
    12     1     2    1
    13     2     3    1
    14     3     4    1
    15     4     5    1
    16     5     6    1
    17     6     7    1
    18     7     1    1
    19    16     9   ar
    20    18    20    1
    21     6     8    1
@<TRIPOS>MOLECULE
*****
 20 21 0 0 0
SMALL
GASTEIGER

@<TRIPOS>ATOM
      1 C         139.5201  139.3568  166.6499 C.3     1  UNL1        0.0358
      2 C         140.9395  139.3928  166.1658 C.3     1  UNL1        0.0055
      3 C         142.1867  139.6844  166.9465 C.3     1  UNL1        0.0018
      4 C         142.3226  140.0119  168.4039 C.3     1  UNL1        0.0171
      5 C         141.2450  140.1289  169.4408 C.3     1  UNL1        0.0686
      6 N         139.7652  139.9471  169.2762 N.3     1  UNL1       -0.2972
      7 C         138.9976  139.6035  168.0341 C.3     1  UNL1        0.0726
      8 H         139.3629  140.8306  169.5890 H       1  UNL1        0.1233
      9 C         139.3842  139.0293  165.1925 C.ar    1  UNL1       -0.0205
     10 C         140.0503  137.8073  164.6330 C.ar    1  UNL1       -0.0033
     11 C         139.9144  137.4798  163.1755 C.ar    1  UNL1        0.0119
     12 C         139.1123  138.3743  162.2775 C.ar    1  UNL1        0.0682
     13 CL        138.9763  138.0468  160.8200 Cl      1  UNL1       -0.0814
     14 C         138.4461  139.5963  162.8368 C.ar    1  UNL1        0.0679
     15 CL        137.6441  140.4908  161.9388 Cl      1  UNL1       -0.0814
     16 C         138.5821  139.9238  164.2943 C.ar    1  UNL1        0.0080
     17 C         138.0403  139.1751  166.4853 C.3     1  UNL1        0.0371
     18 O         137.3225  136.7497  167.0789 O.3     1  UNL1       -0.3820
     19 C         137.2986  138.2203  167.3733 C.3     1  UNL1        0.1375
     20 H         136.7971  136.2782  167.7442 H       1  UNL1        0.2104
@<TRIPOS>BOND
     1    18    19    1
     2    19    17    1
     3     1    17    1
     4     1     9    1
     5     9    10   ar
     6    10    11   ar
     7    11    12   ar
     8    12    13    1
     9    12    14   ar
    10    14    15    1
    11    14    16   ar
    12     1     2    1
    13     2     3    1
    14     3     4    1
    15     4     5    1
    16     5     6    1
    17     6     7    1
    18     7     1    1
    19    16     9   ar
    20    18    20    1
    21     6     8    1
@<TRIPOS>MOLECULE
*****
 20 21 0 0 0
SMALL
GASTEIGER

@<TRIPOS>ATOM
      1 C         139.1186  140.2233  166.3279 C.3     1  UNL1        0.0358
      2 C         139.5710  141.5507  165.7955 C.3     1  UNL1        0.0055
      3 C         140.2585  142.6662  166.5257 C.3     1  UNL1        0.0018
      4 C         140.6634  142.7297  167.9686 C.3     1  UNL1        0.0171
      5 C         140.4809  141.6935  169.0377 C.3     1  UNL1        0.0686
      6 N         139.8483  140.3378  168.9279 N.3     1  UNL1       -0.2972
      7 C         139.2421  139.6836  167.7219 C.3     1  UNL1        0.0726
      8 H         139.0964  140.3501  169.6170 H       1  UNL1        0.1233
      9 C         138.7137  140.1598  164.8850 C.ar    1  UNL1       -0.0205
     10 C         137.8115  141.2123  164.3121 C.ar    1  UNL1       -0.0033
     11 C         137.4066  141.1489  162.8692 C.ar    1  UNL1        0.0119
     12 C         137.9040  140.0328  161.9991 C.ar    1  UNL1        0.0682
     13 CL        137.4992  139.9692  160.5562 Cl      1  UNL1       -0.0814
     14 C         138.8063  138.9802  162.5719 C.ar    1  UNL1        0.0679
     15 CL        139.3036  137.8642  161.7019 Cl      1  UNL1       -0.0814
     16 C         139.2111  139.0437  164.0148 C.ar    1  UNL1        0.0080
     17 C         138.4861  138.8676  166.2181 C.3     1  UNL1        0.0371
     18 O         137.1145  136.9805  167.3618 O.3     1  UNL1       -0.3820
     19 C         137.4642  138.4329  167.2266 C.3     1  UNL1        0.1375
     20 H         136.4428  136.8727  168.0532 H       1  UNL1        0.2104
@<TRIPOS>BOND
     1    18    19    1
     2    19    17    1
     3     1    17    1
     4     1     9    1
     5     9    10   ar
     6    10    11   ar
     7    11    12   ar
     8    12    13    1
     9    12    14   ar
    10    14    15    1
    11    14    16   ar
    12     1     2    1
    13     2     3    1
    14     3     4    1
    15     4     5    1
    16     5     6    1
    17     6     7    1
    18     7     1    1
    19    16     9   ar
    20    18    20    1
    21     6     8    1
@<TRIPOS>MOLECULE
*****
 20 21 0 0 0
SMALL
GASTEIGER

@<TRIPOS>ATOM
      1 C         140.1399  141.6503  167.1369 C.3     1  UNL1        0.0358
      2 C         140.4366  142.8926  167.9236 C.3     1  UNL1        0.0055
      3 C         140.4249  143.0823  169.4116 C.3     1  UNL1        0.0018
      4 C         140.1138  142.0768  170.4802 C.3     1  UNL1        0.0171
      5 C         139.7374  140.6331  170.3250 C.3     1  UNL1        0.0686
      6 N         139.5792  139.8384  169.0627 N.3     1  UNL1       -0.2972
      7 C         139.7584  140.2912  167.6439 C.3     1  UNL1        0.0726
      8 H         138.6223  139.4873  169.1000 H       1  UNL1        0.1233
      9 C         140.4510  142.6558  166.0683 C.ar    1  UNL1       -0.0205
     10 C         139.4022  143.6353  165.6316 C.ar    1  UNL1       -0.0033
     11 C         139.7134  144.6408  164.5630 C.ar    1  UNL1        0.0119
     12 C         141.0735  144.6670  163.9310 C.ar    1  UNL1        0.0682
     13 CL        141.3848  145.6725  162.8624 Cl      1  UNL1       -0.0814
     14 C         142.1224  143.6876  164.3676 C.ar    1  UNL1        0.0679
     15 CL        143.4825  143.7138  163.7356 Cl      1  UNL1       -0.0814
     16 C         141.8112  142.6821  165.4363 C.ar    1  UNL1        0.0080
     17 C         139.9817  140.8555  165.8746 C.3     1  UNL1        0.0371
     18 O         137.6301  140.6753  164.7849 O.3     1  UNL1       -0.3820
     19 C         138.7199  140.0827  165.6281 C.3     1  UNL1        0.1375
     20 H         136.8905  140.0503  164.7264 H       1  UNL1        0.2104
@<TRIPOS>BOND
     1    18    19    1
     2    19    17    1
     3     1    17    1
     4     1     9    1
     5     9    10   ar
     6    10    11   ar
     7    11    12   ar
     8    12    13    1
     9    12    14   ar
    10    14    15    1
    11    14    16   ar
    12     1     2    1
    13     2     3    1
    14     3     4    1
    15     4     5    1
    16     5     6    1
    17     6     7    1
    18     7     1    1
    19    16     9   ar
    20    18    20    1
    21     6     8    1
@<TRIPOS>MOLECULE
*****
 20 21 0 0 0
SMALL
GASTEIGER

@<TRIPOS>ATOM
      1 C         143.1054  139.9685  165.3155 C.3     1  UNL1        0.0358
      2 C         143.1909  141.4019  165.7492 C.3     1  UNL1        0.0055
      3 C         144.0860  142.4857  165.2254 C.3     1  UNL1        0.0018
      4 C         145.1166  142.4036  164.1387 C.3     1  UNL1        0.0171
      5 C         145.5067  141.2177  163.3073 C.3     1  UNL1        0.0686
      6 N         144.9625  139.8208  163.3573 N.3     1  UNL1       -0.2972
      7 C         143.8938  139.2649  164.2511 C.3     1  UNL1        0.0726
      8 H         145.7777  139.2353  163.5391 H       1  UNL1        0.1233
      9 C         142.0748  140.0505  166.4023 C.ar    1  UNL1       -0.0205
     10 C         140.7006  140.5676  166.0954 C.ar    1  UNL1       -0.0033
     11 C         139.6699  140.6496  167.1821 C.ar    1  UNL1        0.0119
     12 C         140.0136  140.2146  168.5760 C.ar    1  UNL1        0.0682
     13 CL        138.9830  140.2967  169.6628 Cl      1  UNL1       -0.0814
     14 C         141.3878  139.6976  168.8830 C.ar    1  UNL1        0.0679
     15 CL        141.7314  139.2626  170.2767 Cl      1  UNL1       -0.0814
     16 C         142.4183  139.6155  167.7962 C.ar    1  UNL1        0.0080
     17 C         142.5612  138.5716  165.3655 C.3     1  UNL1        0.0371
     18 O         141.4404  136.5497  164.1797 O.3     1  UNL1       -0.3820
     19 C         141.9910  137.9440  164.1281 C.3     1  UNL1        0.1375
     20 H         141.1142  136.2982  163.3015 H       1  UNL1        0.2104
@<TRIPOS>BOND
     1    18    19    1
     2    19    17    1
     3     1    17    1
     4     1     9    1
     5     9    10   ar
     6    10    11   ar
     7    11    12   ar
     8    12    13    1
     9    12    14   ar
    10    14    15    1
    11    14    16   ar
    12     1     2    1
    13     2     3    1
    14     3     4    1
    15     4     5    1
    16     5     6    1
    17     6     7    1
    18     7     1    1
    19    16     9   ar
    20    18    20    1
    21     6     8    1
@<TRIPOS>MOLECULE
*****
 20 21 0 0 0
SMALL
GASTEIGER

@<TRIPOS>ATOM
      1 C         139.9244  139.3343  165.8597 C.3     1  UNL1        0.0358
      2 C         141.3586  139.7335  165.6750 C.3     1  UNL1        0.0055
      3 C         142.3709  139.1698  164.7222 C.3     1  UNL1        0.0018
      4 C         142.1992  138.0681  163.7191 C.3     1  UNL1        0.0171
      5 C         140.9727  137.2577  163.4207 C.3     1  UNL1        0.0686
      6 N         139.6151  137.3489  164.0519 N.3     1  UNL1       -0.2972
      7 C         139.1486  138.2732  165.1374 C.3     1  UNL1        0.0726
      8 H         139.4411  136.4138  164.4203 H       1  UNL1        0.1233
      9 C         140.0963  140.4361  166.8629 C.ar    1  UNL1       -0.0205
     10 C         140.1831  141.8616  166.4041 C.ar    1  UNL1       -0.0033
     11 C         140.3549  142.9634  167.4073 C.ar    1  UNL1        0.0119
     12 C         140.4399  142.6397  168.8695 C.ar    1  UNL1        0.0682
     13 CL        140.6117  143.7415  169.8728 Cl      1  UNL1       -0.0814
     14 C         140.3530  141.2143  169.3285 C.ar    1  UNL1        0.0679
     15 CL        140.4380  140.8906  170.7906 Cl      1  UNL1       -0.0814
     16 C         140.1812  140.1125  168.3252 C.ar    1  UNL1        0.0080
     17 C         138.5668  139.4256  166.4909 C.3     1  UNL1        0.0371
     18 O         137.0142  137.9762  167.9871 O.3     1  UNL1       -0.3820
     19 C         137.7505  138.1841  166.6969 C.3     1  UNL1        0.1375
     20 H         136.5400  137.1305  167.9561 H       1  UNL1        0.2104
@<TRIPOS>BOND
     1    18    19    1
     2    19    17    1
     3     1    17    1
     4     1     9    1
     5     9    10   ar
     6    10    11   ar
     7    11    12   ar
     8    12    13    1
     9    12    14   ar
    10    14    15    1
    11    14    16   ar
    12     1     2    1
    13     2     3    1
    14     3     4    1
    15     4     5    1
    16     5     6    1
    17     6     7    1
    18     7     1    1
    19    16     9   ar
    20    18    20    1
    21     6     8    1
@<TRIPOS>MOLECULE
*****
 20 21 0 0 0
SMALL
GASTEIGER

@<TRIPOS>ATOM
      1 C         139.6741  141.7931  166.0264 C.3     1  UNL1        0.0358
      2 C         139.9504  143.2658  165.9562 C.3     1  UNL1        0.0055
      3 C         139.2710  144.3058  165.1154 C.3     1  UNL1        0.0018
      4 C         138.1476  144.1299  164.1373 C.3     1  UNL1        0.0171
      5 C         137.4259  142.8707  163.7582 C.3     1  UNL1        0.0686
      6 N         137.6496  141.4763  164.2637 N.3     1  UNL1       -0.2972
      7 C         138.6502  140.9968  165.2732 C.3     1  UNL1        0.0726
      8 H         137.8498  140.9298  163.4261 H       1  UNL1        0.1233
      9 C         140.7976  141.9690  167.0045 C.ar    1  UNL1       -0.0205
     10 C         142.1942  142.2007  166.5090 C.ar    1  UNL1       -0.0033
     11 C         143.3177  142.3766  167.4872 C.ar    1  UNL1        0.0119
     12 C         143.0444  142.3208  168.9610 C.ar    1  UNL1        0.0682
     13 CL        144.1679  142.4967  169.9393 Cl      1  UNL1       -0.0814
     14 C         141.6478  142.0890  169.4567 C.ar    1  UNL1        0.0679
     15 CL        141.3746  142.0332  170.9305 Cl      1  UNL1       -0.0814
     16 C         140.5244  141.9131  168.4785 C.ar    1  UNL1        0.0080
     17 C         139.8978  140.3986  166.5319 C.3     1  UNL1        0.0371
     18 O         141.4814  138.5669  165.5902 O.3     1  UNL1       -0.3820
     19 C         140.1641  139.2838  165.5643 C.3     1  UNL1        0.1375
     20 H         141.4892  137.8798  164.9055 H       1  UNL1        0.2104
@<TRIPOS>BOND
     1    18    19    1
     2    19    17    1
     3     1    17    1
     4     1     9    1
     5     9    10   ar
     6    10    11   ar
     7    11    12   ar
     8    12    13    1
     9    12    14   ar
    10    14    15    1
    11    14    16   ar
    12     1     2    1
    13     2     3    1
    14     3     4    1
    15     4     5    1
    16     5     6    1
    17     6     7    1
    18     7     1    1
    19    16     9   ar
    20    18    20    1
    21     6     8    1
@<TRIPOS>MOLECULE
*****
 20 21 0 0 0
SMALL
GASTEIGER

@<TRIPOS>ATOM
      1 C         142.6395  143.1080  164.9954 C.3     1  UNL1        0.0358
      2 C         141.1941  143.0672  165.3948 C.3     1  UNL1        0.0055
      3 C         140.0483  143.8618  164.8417 C.3     1  UNL1        0.0018
      4 C         140.0648  144.8932  163.7528 C.3     1  UNL1        0.0171
      5 C         141.2312  145.3850  162.9479 C.3     1  UNL1        0.0686
      6 N         142.6691  144.9667  163.0333 N.3     1  UNL1       -0.2972
      7 C         143.2958  143.9533  163.9445 C.3     1  UNL1        0.0726
      8 H         143.1757  145.8310  163.2254 H       1  UNL1        0.1233
      9 C         142.6229  142.0766  166.0843 C.ar    1  UNL1       -0.0205
     10 C         142.1292  140.6898  165.7965 C.ar    1  UNL1       -0.0033
     11 C         142.1126  139.6583  166.8854 C.ar    1  UNL1        0.0119
     12 C         142.5899  140.0137  168.2623 C.ar    1  UNL1        0.0682
     13 CL        142.5733  138.9823  169.3513 Cl      1  UNL1       -0.0814
     14 C         143.0837  141.4005  168.5503 C.ar    1  UNL1        0.0679
     15 CL        143.5609  141.7559  169.9272 Cl      1  UNL1       -0.0814
     16 C         143.1002  142.4319  167.4613 C.ar    1  UNL1        0.0080
     17 C         144.0775  142.6898  165.0808 C.3     1  UNL1        0.0371
     18 O         146.2053  141.7270  163.9424 O.3     1  UNL1       -0.3820
     19 C         144.8131  142.2760  163.8406 C.3     1  UNL1        0.1375
     20 H         146.5332  141.5107  163.0556 H       1  UNL1        0.2104
@<TRIPOS>BOND
     1    18    19    1
     2    19    17    1
     3     1    17    1
     4     1     9    1
     5     9    10   ar
     6    10    11   ar
     7    11    12   ar
     8    12    13    1
     9    12    14   ar
    10    14    15    1
    11    14    16   ar
    12     1     2    1
    13     2     3    1
    14     3     4    1
    15     4     5    1
    16     5     6    1
    17     6     7    1
    18     7     1    1
    19    16     9   ar
    20    18    20    1
    21     6     8    1
@<TRIPOS>MOLECULE
*****
 20 21 0 0 0
SMALL
GASTEIGER

@<TRIPOS>ATOM
      1 C         138.9099  138.6983  164.1043 C.3     1  UNL1        0.0358
      2 C         138.2490  140.0435  164.0412 C.3     1  UNL1        0.0055
      3 C         137.6891  140.7552  162.8453 C.3     1  UNL1        0.0018
      4 C         137.6518  140.2977  161.4174 C.3     1  UNL1        0.0171
      5 C         138.1651  139.0153  160.8324 C.3     1  UNL1        0.0686
      6 N         138.8426  137.8739  161.5311 N.3     1  UNL1       -0.2972
      7 C         139.1740  137.7329  162.9872 C.3     1  UNL1        0.0726
      8 H         139.7394  137.7787  161.0545 H       1  UNL1        0.1233
      9 C         138.9472  139.1559  165.5322 C.ar    1  UNL1       -0.0205
     10 C         138.0053  138.5597  166.5359 C.ar    1  UNL1       -0.0033
     11 C         138.0426  139.0173  167.9639 C.ar    1  UNL1        0.0119
     12 C         139.0219  140.0713  168.3882 C.ar    1  UNL1        0.0682
     13 CL        139.0593  140.5290  169.8162 Cl      1  UNL1       -0.0814
     14 C         139.9639  140.6677  167.3847 C.ar    1  UNL1        0.0679
     15 CL        140.9431  141.7216  167.8090 Cl      1  UNL1       -0.0814
     16 C         139.9265  140.2100  165.9567 C.ar    1  UNL1        0.0080
     17 C         139.5874  137.5568  164.8029 C.3     1  UNL1        0.0371
     18 O         142.1692  137.6965  165.0573 O.3     1  UNL1       -0.3820
     19 C         140.9598  137.1257  164.3779 C.3     1  UNL1        0.1375
     20 H         142.9704  137.3151  164.6654 H       1  UNL1        0.2104
@<TRIPOS>BOND
     1    18    19    1
     2    19    17    1
     3     1    17    1
     4     1     9    1
     5     9    10   ar
     6    10    11   ar
     7    11    12   ar
     8    12    13    1
     9    12    14   ar
    10    14    15    1
    11    14    16   ar
    12     1     2    1
    13     2     3    1
    14     3     4    1
    15     4     5    1
    16     5     6    1
    17     6     7    1
    18     7     1    1
    19    16     9   ar
    20    18    20    1
    21     6     8    1
