@<TRIPOS>MOLECULE
*****
 35 40 0 0 0
SMALL
GASTEIGER

@<TRIPOS>ATOM
      1 C         139.5441  140.6585  164.9361 C.3     1  UNL1        0.0854
      2 C         140.7021  140.4182  164.0134 C.3     1  UNL1        0.0875
      3 N         140.4624  140.2122  162.5471 N.3     1  UNL1       -0.2692
      4 C         141.6204  139.9719  161.6244 C.3     1  UNL1        0.0939
      5 C         141.3808  139.7659  160.1581 C.3     1  UNL1        0.1107
      6 N         139.9832  139.8003  159.6144 N.am    1  UNL1       -0.2764
      7 C         139.7436  139.5943  158.1480 C.2     1  UNL1        0.2302
      8 O         138.3460  139.6286  157.6044 O.2     1  UNL1       -0.2745
      9 C         138.8253  140.0406  160.5371 C.3     1  UNL1        0.1102
     10 C         139.0649  140.2465  162.0035 C.3     1  UNL1        0.0884
     11 C         137.9069  140.4869  162.9261 C.3     1  UNL1        0.0755
     12 S         138.1465  140.6928  164.3924 S.3     1  UNL1       -0.1338
     13 C         140.1555  143.4017  165.9854 C.3     1  UNL1        0.0305
     14 C         140.0894  142.2360  166.9271 C.ar    1  UNL1       -0.0252
     15 C         139.7837  140.8644  166.4025 C.ar    1  UNL1       -0.0153
     16 C         139.7176  139.6988  167.3442 C.ar    1  UNL1       -0.0035
     17 C         139.9572  139.9047  168.8105 C.ar    1  UNL1        0.0059
     18 C         140.2629  141.2763  169.3352 C.ar    1  UNL1        0.0748
     19 C         140.3290  142.4420  168.3935 C.ar    1  UNL1        0.0233
     20 C         140.6488  143.6684  169.1957 C.3     1  UNL1        0.2352
     21 O         140.7804  143.2607  170.6332 O.3     1  UNL1       -0.4404
     22 C         140.5419  141.7823  170.7194 C.2     1  UNL1        0.3413
     23 O         140.5763  140.9552  171.9703 O.2     1  UNL1       -0.2449
     24 C         140.9016  139.3540  157.2254 C.3     1  UNL1        0.1131
     25 C         141.2887  137.9524  156.8571 C.ar    1  UNL1        0.0062
     26 C         140.4784  137.1903  155.8507 C.ar    1  UNL1        0.0009
     27 C         140.8656  135.7888  155.4824 C.ar    1  UNL1        0.0386
     28 C         142.0630  135.1492  156.1205 C.ar    1  UNL1        0.1672
     29 N         142.8733  135.9112  157.1268 N.ar    1  UNL1       -0.2252
     30 C         142.4862  137.3129  157.4951 C.ar    1  UNL1        0.0968
     31 N         142.4502  133.7476  155.7522 N.ar    1  UNL1       -0.1708
     32 C         142.8084  133.2640  154.3782 C.ar    1  UNL1        0.2272
     33 N         143.1267  131.8010  154.4701 N.ar    1  UNL1       -0.1044
     34 N         142.9652  131.3805  155.9009 N.ar    1  UNL1       -0.0222
     35 N         142.5471  132.5835  156.6933 N.ar    1  UNL1       -0.0371
@<TRIPOS>BOND
     1    13    14    1
     2    14    15   ar
     3     1    15    1
     4     1     2    1
     5     2     3    1
     6     3     4    1
     7     4     5    1
     8     5     6    1
     9     6     7   am
    10     7     8    2
    11     7    24    1
    12    24    25    1
    13    25    26   ar
    14    26    27   ar
    15    27    28   ar
    16    28    31    1
    17    31    32   ar
    18    32    33   ar
    19    33    34   ar
    20    34    35   ar
    21    28    29   ar
    22    29    30   ar
    23     6     9    1
    24    10     9    1
    25    10    11    1
    26    11    12    1
    27    15    16   ar
    28    16    17   ar
    29    17    18   ar
    30    18    19   ar
    31    19    20    1
    32    20    21    1
    33    21    22    1
    34    22    23    2
    35    19    14   ar
    36    12     1    1
    37    22    18    1
    38    10     3    1
    39    30    25   ar
    40    35    31   ar
@<TRIPOS>MOLECULE
*****
 35 40 0 0 0
SMALL
GASTEIGER

@<TRIPOS>ATOM
      1 C         139.8540  139.6104  163.7381 C.3     1  UNL1        0.0854
      2 C         140.9400  138.7088  163.2306 C.3     1  UNL1        0.0875
      3 N         141.1833  138.5845  161.7557 N.3     1  UNL1       -0.2692
      4 C         142.2694  137.6829  161.2481 C.3     1  UNL1        0.0939
      5 C         142.5128  137.5586  159.7732 C.3     1  UNL1        0.1107
      6 N         141.6701  138.3359  158.8059 N.am    1  UNL1       -0.2764
      7 C         141.9134  138.2116  157.3309 C.2     1  UNL1        0.2302
      8 O         141.0707  138.9888  156.3636 O.2     1  UNL1       -0.2745
      9 C         140.5840  139.2375  159.3134 C.3     1  UNL1        0.1102
     10 C         140.3406  139.3618  160.7884 C.3     1  UNL1        0.0884
     11 C         139.2546  140.2634  161.2959 C.3     1  UNL1        0.0755
     12 S         139.0113  140.3877  162.7708 S.3     1  UNL1       -0.1338
     13 C         141.5643  141.4380  165.3919 C.3     1  UNL1        0.0305
     14 C         140.4657  140.6485  166.0399 C.ar    1  UNL1       -0.0252
     15 C         139.6106  139.7347  165.2131 C.ar    1  UNL1       -0.0153
     16 C         138.5120  138.9453  165.8611 C.ar    1  UNL1       -0.0035
     17 C         138.2686  139.0696  167.3359 C.ar    1  UNL1        0.0059
     18 C         139.1238  139.9834  168.1629 C.ar    1  UNL1        0.0748
     19 C         140.2224  140.7728  167.5149 C.ar    1  UNL1        0.0233
     20 C         140.8977  141.5867  168.5784 C.3     1  UNL1        0.2352
     21 O         140.2166  141.3004  169.8838 O.3     1  UNL1       -0.4404
     22 C         139.1202  140.3094  169.6269 C.2     1  UNL1        0.3413
     23 O         138.1846  139.7438  170.6539 O.2     1  UNL1       -0.2449
     24 C         142.9995  137.3100  156.8234 C.3     1  UNL1        0.1131
     25 C         142.7005  135.8711  156.5231 C.ar    1  UNL1        0.0062
     26 C         141.8282  135.5141  155.3561 C.ar    1  UNL1        0.0009
     27 C         141.5292  134.0752  155.0558 C.ar    1  UNL1        0.0386
     28 C         142.1024  132.9934  155.9224 C.ar    1  UNL1        0.1672
     29 N         142.9746  133.3504  157.0894 N.ar    1  UNL1       -0.2252
     30 C         143.2736  134.7893  157.3897 C.ar    1  UNL1        0.0968
     31 N         141.8034  131.5545  155.6221 N.ar    1  UNL1       -0.1708
     32 C         142.6018  130.3725  156.0864 C.ar    1  UNL1        0.2272
     33 N         141.9452  129.1324  155.5560 N.ar    1  UNL1       -0.1044
     34 N         140.7410  129.5480  154.7640 N.ar    1  UNL1       -0.0222
     35 N         140.6533  131.0449  154.8048 N.ar    1  UNL1       -0.0371
@<TRIPOS>BOND
     1    13    14    1
     2    14    15   ar
     3     1    15    1
     4     1     2    1
     5     2     3    1
     6     3     4    1
     7     4     5    1
     8     5     6    1
     9     6     7   am
    10     7     8    2
    11     7    24    1
    12    24    25    1
    13    25    26   ar
    14    26    27   ar
    15    27    28   ar
    16    28    31    1
    17    31    32   ar
    18    32    33   ar
    19    33    34   ar
    20    34    35   ar
    21    28    29   ar
    22    29    30   ar
    23     6     9    1
    24    10     9    1
    25    10    11    1
    26    11    12    1
    27    15    16   ar
    28    16    17   ar
    29    17    18   ar
    30    18    19   ar
    31    19    20    1
    32    20    21    1
    33    21    22    1
    34    22    23    2
    35    19    14   ar
    36    12     1    1
    37    22    18    1
    38    10     3    1
    39    30    25   ar
    40    35    31   ar
@<TRIPOS>MOLECULE
*****
 35 40 0 0 0
SMALL
GASTEIGER

@<TRIPOS>ATOM
      1 C         142.6130  141.4740  157.9533 C.3     1  UNL1        0.0854
      2 C         142.5893  140.4676  159.0653 C.3     1  UNL1        0.0875
      3 N         141.4749  140.4853  160.0691 N.3     1  UNL1       -0.2692
      4 C         141.4511  139.4788  161.1812 C.3     1  UNL1        0.0939
      5 C         140.3367  139.4965  162.1850 C.3     1  UNL1        0.1107
      6 N         139.2461  140.5206  162.0769 N.am    1  UNL1       -0.2764
      7 C         138.1316  140.5382  163.0808 C.2     1  UNL1        0.2302
      8 O         137.0410  141.5623  162.9727 O.2     1  UNL1       -0.2745
      9 C         139.2698  141.5270  160.9649 C.3     1  UNL1        0.1102
     10 C         140.3842  141.5094  159.9610 C.3     1  UNL1        0.0884
     11 C         140.4079  142.5158  158.8490 C.3     1  UNL1        0.0755
     12 S         141.5223  142.4981  157.8452 S.3     1  UNL1       -0.1338
     13 C         145.2895  142.6286  158.6627 C.3     1  UNL1        0.0305
     14 C         145.0656  142.0336  157.3041 C.ar    1  UNL1       -0.0252
     15 C         143.7274  141.4563  156.9493 C.ar    1  UNL1       -0.0153
     16 C         143.5036  140.8614  155.5907 C.ar    1  UNL1       -0.0035
     17 C         144.6179  140.8437  154.5868 C.ar    1  UNL1        0.0059
     18 C         145.9562  141.4210  154.9415 C.ar    1  UNL1        0.0748
     19 C         146.1801  142.0160  156.3001 C.ar    1  UNL1        0.0233
     20 C         147.5959  142.5071  156.3635 C.3     1  UNL1        0.2352
     21 O         148.2471  142.2157  155.0441 O.3     1  UNL1       -0.4404
     22 C         147.2337  141.5445  154.1652 C.2     1  UNL1        0.3413
     23 O         147.4584  141.0785  152.7572 O.2     1  UNL1       -0.2449
     24 C         138.1079  139.5318  164.1928 C.3     1  UNL1        0.1131
     25 C         138.6394  139.8977  165.5469 C.ar    1  UNL1        0.0062
     26 C         139.5467  141.0822  165.7015 C.ar    1  UNL1        0.0009
     27 C         140.0783  141.4481  167.0556 C.ar    1  UNL1        0.0386
     28 C         139.7026  140.6294  168.2551 C.ar    1  UNL1        0.1672
     29 N         138.7953  139.4450  168.1005 N.ar    1  UNL1       -0.2252
     30 C         138.2638  139.0791  166.7464 C.ar    1  UNL1        0.0968
     31 N         140.2341  140.9953  169.6092 N.ar    1  UNL1       -0.1708
     32 C         141.4497  140.4117  170.2664 C.ar    1  UNL1        0.2272
     33 N         141.6102  141.0648  171.6073 N.ar    1  UNL1       -0.1044
     34 N         140.4939  142.0519  171.7787 N.ar    1  UNL1       -0.0222
     35 N         139.6434  142.0090  170.5439 N.ar    1  UNL1       -0.0371
@<TRIPOS>BOND
     1    13    14    1
     2    14    15   ar
     3     1    15    1
     4     1     2    1
     5     2     3    1
     6     3     4    1
     7     4     5    1
     8     5     6    1
     9     6     7   am
    10     7     8    2
    11     7    24    1
    12    24    25    1
    13    25    26   ar
    14    26    27   ar
    15    27    28   ar
    16    28    31    1
    17    31    32   ar
    18    32    33   ar
    19    33    34   ar
    20    34    35   ar
    21    28    29   ar
    22    29    30   ar
    23     6     9    1
    24    10     9    1
    25    10    11    1
    26    11    12    1
    27    15    16   ar
    28    16    17   ar
    29    17    18   ar
    30    18    19   ar
    31    19    20    1
    32    20    21    1
    33    21    22    1
    34    22    23    2
    35    19    14   ar
    36    12     1    1
    37    22    18    1
    38    10     3    1
    39    30    25   ar
    40    35    31   ar
@<TRIPOS>MOLECULE
*****
 35 40 0 0 0
SMALL
GASTEIGER

@<TRIPOS>ATOM
      1 C         140.1887  140.8548  164.0295 C.3     1  UNL1        0.0854
      2 C         139.1346  141.4756  163.1615 C.3     1  UNL1        0.0875
      3 N         139.3696  141.6260  161.6877 N.3     1  UNL1       -0.2692
      4 C         138.3154  142.2468  160.8196 C.3     1  UNL1        0.0939
      5 C         138.5504  142.3973  159.3458 C.3     1  UNL1        0.1107
      6 N         139.8395  141.9269  158.7400 N.am    1  UNL1       -0.2764
      7 C         140.0745  142.0774  157.2662 C.2     1  UNL1        0.2302
      8 O         141.3636  141.6070  156.6603 O.2     1  UNL1       -0.2745
      9 C         140.8936  141.3061  159.6080 C.3     1  UNL1        0.1102
     10 C         140.6587  141.1557  161.0819 C.3     1  UNL1        0.0884
     11 C         141.7128  140.5349  161.9499 C.3     1  UNL1        0.0755
     12 S         141.4778  140.3844  163.4237 S.3     1  UNL1       -0.1338
     13 C         141.2713  142.9009  165.9377 C.3     1  UNL1        0.0305
     14 C         140.4950  141.7274  166.4574 C.ar    1  UNL1       -0.0252
     15 C         139.9537  140.7043  165.5033 C.ar    1  UNL1       -0.0153
     16 C         139.1774  139.5308  166.0231 C.ar    1  UNL1       -0.0035
     17 C         138.9425  139.3803  167.4969 C.ar    1  UNL1        0.0059
     18 C         139.4838  140.4034  168.4510 C.ar    1  UNL1        0.0748
     19 C         140.2601  141.5769  167.9313 C.ar    1  UNL1        0.0233
     20 C         140.6682  142.4186  169.1037 C.3     1  UNL1        0.2352
     21 O         140.1441  141.7654  170.3482 O.3     1  UNL1       -0.4404
     22 C         139.4121  140.5198  169.9447 C.2     1  UNL1        0.3413
     23 O         138.7285  139.5594  170.8722 O.2     1  UNL1       -0.2449
     24 C         139.0204  142.6982  156.3982 C.3     1  UNL1        0.1131
     25 C         139.0057  144.1823  156.1815 C.ar    1  UNL1        0.0062
     26 C         139.9289  145.0644  156.9687 C.ar    1  UNL1        0.0009
     27 C         139.9142  146.5486  156.7521 C.ar    1  UNL1        0.0386
     28 C         138.9763  147.1508  155.7482 C.ar    1  UNL1        0.1672
     29 N         138.0531  146.2688  154.9610 N.ar    1  UNL1       -0.2252
     30 C         138.0677  144.7845  155.1777 C.ar    1  UNL1        0.0968
     31 N         138.9616  148.6349  155.5316 N.ar    1  UNL1       -0.1708
     32 C         139.5411  149.3597  154.3531 C.ar    1  UNL1        0.2272
     33 N         139.3025  150.8278  154.5485 N.ar    1  UNL1       -0.1044
     34 N         138.5754  151.0102  155.8479 N.ar    1  UNL1       -0.0222
     35 N         138.3647  149.6550  156.4554 N.ar    1  UNL1       -0.0371
@<TRIPOS>BOND
     1    13    14    1
     2    14    15   ar
     3     1    15    1
     4     1     2    1
     5     2     3    1
     6     3     4    1
     7     4     5    1
     8     5     6    1
     9     6     7   am
    10     7     8    2
    11     7    24    1
    12    24    25    1
    13    25    26   ar
    14    26    27   ar
    15    27    28   ar
    16    28    31    1
    17    31    32   ar
    18    32    33   ar
    19    33    34   ar
    20    34    35   ar
    21    28    29   ar
    22    29    30   ar
    23     6     9    1
    24    10     9    1
    25    10    11    1
    26    11    12    1
    27    15    16   ar
    28    16    17   ar
    29    17    18   ar
    30    18    19   ar
    31    19    20    1
    32    20    21    1
    33    21    22    1
    34    22    23    2
    35    19    14   ar
    36    12     1    1
    37    22    18    1
    38    10     3    1
    39    30    25   ar
    40    35    31   ar
@<TRIPOS>MOLECULE
*****
 35 40 0 0 0
SMALL
GASTEIGER

@<TRIPOS>ATOM
      1 C         142.2673  140.6641  164.7226 C.3     1  UNL1        0.0854
      2 C         141.3643  139.8225  163.8705 C.3     1  UNL1        0.0875
      3 N         141.7242  139.5476  162.4405 N.3     1  UNL1       -0.2692
      4 C         140.8211  138.7059  161.5883 C.3     1  UNL1        0.0939
      5 C         141.1810  138.4310  160.1583 C.3     1  UNL1        0.1107
      6 N         142.4439  138.9978  159.5804 N.am    1  UNL1       -0.2764
      7 C         142.8038  138.7228  158.1504 C.2     1  UNL1        0.2302
      8 O         144.0667  139.2896  157.5725 O.2     1  UNL1       -0.2745
      9 C         143.3469  139.8394  160.4326 C.3     1  UNL1        0.1102
     10 C         142.9871  140.1143  161.8626 C.3     1  UNL1        0.0884
     11 C         143.8901  140.9560  162.7148 C.3     1  UNL1        0.0755
     12 S         143.5302  141.2308  164.1447 S.3     1  UNL1       -0.1338
     13 C         143.1636  138.7852  166.8828 C.3     1  UNL1        0.0305
     14 C         142.3556  139.9996  167.2327 C.ar    1  UNL1       -0.0252
     15 C         141.9075  140.9390  166.1526 C.ar    1  UNL1       -0.0153
     16 C         141.0995  142.1534  166.5025 C.ar    1  UNL1       -0.0035
     17 C         140.7396  142.4284  167.9325 C.ar    1  UNL1        0.0059
     18 C         141.1877  141.4889  169.0127 C.ar    1  UNL1        0.0748
     19 C         141.9957  140.2745  168.6628 C.ar    1  UNL1        0.0233
     20 C         142.2938  139.5344  169.9329 C.3     1  UNL1        0.2352
     21 O         141.6701  140.2914  171.0678 O.3     1  UNL1       -0.4404
     22 C         140.9865  141.4993  170.4990 C.2     1  UNL1        0.3413
     23 O         140.2338  142.5357  171.2797 O.2     1  UNL1       -0.2449
     24 C         141.9007  137.8812  157.2983 C.3     1  UNL1        0.1131
     25 C         142.3612  136.5369  156.8179 C.ar    1  UNL1        0.0062
     26 C         141.9465  136.0417  155.4640 C.ar    1  UNL1        0.0009
     27 C         142.4070  134.6974  154.9837 C.ar    1  UNL1        0.0386
     28 C         143.2821  133.8482  155.8572 C.ar    1  UNL1        0.1672
     29 N         143.6968  134.3433  157.2110 N.ar    1  UNL1       -0.2252
     30 C         143.2363  135.6877  157.6914 C.ar    1  UNL1        0.0968
     31 N         143.7426  132.5039  155.3769 N.ar    1  UNL1       -0.1708
     32 C         143.1765  131.7410  154.2161 C.ar    1  UNL1        0.2272
     33 N         143.9341  130.4519  154.0948 N.ar    1  UNL1       -0.1044
     34 N         144.9684  130.4183  155.1807 N.ar    1  UNL1       -0.0222
     35 N         144.8501  131.6864  155.9731 N.ar    1  UNL1       -0.0371
@<TRIPOS>BOND
     1    13    14    1
     2    14    15   ar
     3     1    15    1
     4     1     2    1
     5     2     3    1
     6     3     4    1
     7     4     5    1
     8     5     6    1
     9     6     7   am
    10     7     8    2
    11     7    24    1
    12    24    25    1
    13    25    26   ar
    14    26    27   ar
    15    27    28   ar
    16    28    31    1
    17    31    32   ar
    18    32    33   ar
    19    33    34   ar
    20    34    35   ar
    21    28    29   ar
    22    29    30   ar
    23     6     9    1
    24    10     9    1
    25    10    11    1
    26    11    12    1
    27    15    16   ar
    28    16    17   ar
    29    17    18   ar
    30    18    19   ar
    31    19    20    1
    32    20    21    1
    33    21    22    1
    34    22    23    2
    35    19    14   ar
    36    12     1    1
    37    22    18    1
    38    10     3    1
    39    30    25   ar
    40    35    31   ar
@<TRIPOS>MOLECULE
*****
 35 40 0 0 0
SMALL
GASTEIGER

@<TRIPOS>ATOM
      1 C         140.7956  139.1521  164.2379 C.3     1  UNL1        0.0854
      2 C         140.9459  140.3192  163.3077 C.3     1  UNL1        0.0875
      3 N         141.4697  140.1081  161.9181 N.3     1  UNL1       -0.2692
      4 C         141.6199  141.2752  160.9878 C.3     1  UNL1        0.0939
      5 C         142.1437  141.0641  159.5982 C.3     1  UNL1        0.1107
      6 N         142.5172  139.6859  159.1388 N.am    1  UNL1       -0.2764
      7 C         143.0411  139.4748  157.7491 C.2     1  UNL1        0.2302
      8 O         143.4146  138.0966  157.2897 O.2     1  UNL1       -0.2745
      9 C         142.3670  138.5188  160.0690 C.3     1  UNL1        0.1102
     10 C         141.8432  138.7299  161.4587 C.3     1  UNL1        0.0884
     11 C         141.6930  137.5628  162.3889 C.3     1  UNL1        0.0755
     12 S         141.1692  137.7739  163.7785 S.3     1  UNL1       -0.1338
     13 C         142.6074  140.2189  166.3779 C.3     1  UNL1        0.0305
     14 C         141.1777  139.8966  166.6976 C.ar    1  UNL1       -0.0252
     15 C         140.2718  139.3632  165.6276 C.ar    1  UNL1       -0.0153
     16 C         138.8421  139.0409  165.9472 C.ar    1  UNL1       -0.0035
     17 C         138.3183  139.2520  167.3368 C.ar    1  UNL1        0.0059
     18 C         139.2242  139.7854  168.4068 C.ar    1  UNL1        0.0748
     19 C         140.6539  140.1077  168.0872 C.ar    1  UNL1        0.0233
     20 C         141.3054  140.6160  169.3390 C.3     1  UNL1        0.2352
     21 O         140.2784  140.6079  170.4323 O.3     1  UNL1       -0.4404
     22 C         138.9922  140.0945  169.8561 C.2     1  UNL1        0.3413
     23 O         137.7006  139.9208  170.5990 O.2     1  UNL1       -0.2449
     24 C         143.1913  140.6418  156.8189 C.3     1  UNL1        0.1131
     25 C         144.5438  141.0014  156.2792 C.ar    1  UNL1        0.0062
     26 C         144.9568  140.5305  154.9161 C.ar    1  UNL1        0.0009
     27 C         146.3093  140.8901  154.3764 C.ar    1  UNL1        0.0386
     28 C         147.2489  141.7205  155.1996 C.ar    1  UNL1        0.1672
     29 N         146.8359  142.1913  156.5625 N.ar    1  UNL1       -0.2252
     30 C         145.4834  141.8318  157.1024 C.ar    1  UNL1        0.0968
     31 N         148.6014  142.0800  154.6598 N.ar    1  UNL1       -0.1708
     32 C         148.8756  143.0151  153.5194 C.ar    1  UNL1        0.2272
     33 N         150.3609  143.0806  153.3205 N.ar    1  UNL1       -0.1044
     34 N         151.0048  142.1860  154.3379 N.ar    1  UNL1       -0.0222
     35 N         149.9174  141.5676  155.1657 N.ar    1  UNL1       -0.0371
@<TRIPOS>BOND
     1    13    14    1
     2    14    15   ar
     3     1    15    1
     4     1     2    1
     5     2     3    1
     6     3     4    1
     7     4     5    1
     8     5     6    1
     9     6     7   am
    10     7     8    2
    11     7    24    1
    12    24    25    1
    13    25    26   ar
    14    26    27   ar
    15    27    28   ar
    16    28    31    1
    17    31    32   ar
    18    32    33   ar
    19    33    34   ar
    20    34    35   ar
    21    28    29   ar
    22    29    30   ar
    23     6     9    1
    24    10     9    1
    25    10    11    1
    26    11    12    1
    27    15    16   ar
    28    16    17   ar
    29    17    18   ar
    30    18    19   ar
    31    19    20    1
    32    20    21    1
    33    21    22    1
    34    22    23    2
    35    19    14   ar
    36    12     1    1
    37    22    18    1
    38    10     3    1
    39    30    25   ar
    40    35    31   ar
@<TRIPOS>MOLECULE
*****
 35 40 0 0 0
SMALL
GASTEIGER

@<TRIPOS>ATOM
      1 C         139.7740  140.5691  163.4276 C.3     1  UNL1        0.0854
      2 C         140.9910  140.2057  162.6296 C.3     1  UNL1        0.0875
      3 N         140.8401  139.6129  161.2600 N.3     1  UNL1       -0.2692
      4 C         142.0571  139.2494  160.4619 C.3     1  UNL1        0.0939
      5 C         141.9063  138.6566  159.0923 C.3     1  UNL1        0.1107
      6 N         140.5385  138.4271  158.5208 N.am    1  UNL1       -0.2764
      7 C         140.3877  137.8342  157.1512 C.2     1  UNL1        0.2302
      8 O         139.0200  137.6047  156.5797 O.2     1  UNL1       -0.2745
      9 C         139.3216  138.7905  159.3189 C.3     1  UNL1        0.1102
     10 C         139.4724  139.3834  160.6885 C.3     1  UNL1        0.0884
     11 C         138.2555  139.7468  161.4866 C.3     1  UNL1        0.0755
     12 S         138.4063  140.3397  162.8562 S.3     1  UNL1       -0.1338
     13 C         139.7357  138.7918  165.8442 C.3     1  UNL1        0.0305
     14 C         139.9056  140.2734  166.0055 C.ar    1  UNL1       -0.0252
     15 C         139.9248  141.1620  164.7973 C.ar    1  UNL1       -0.0153
     16 C         140.0948  142.6436  164.9586 C.ar    1  UNL1       -0.0035
     17 C         140.2456  143.2365  166.3281 C.ar    1  UNL1        0.0059
     18 C         140.2264  142.3478  167.5364 C.ar    1  UNL1        0.0748
     19 C         140.0564  140.8662  167.3751 C.ar    1  UNL1        0.0233
     20 C         140.0762  140.2460  168.7407 C.3     1  UNL1        0.2352
     21 O         140.2583  141.3443  169.7460 O.3     1  UNL1       -0.4404
     22 C         140.3512  142.6432  169.0017 C.2     1  UNL1        0.3413
     23 O         140.5363  143.9996  169.6151 O.2     1  UNL1       -0.2449
     24 C         141.6047  137.4708  156.3531 C.3     1  UNL1        0.1131
     25 C         142.0661  136.0447  156.2965 C.ar    1  UNL1        0.0062
     26 C         141.4394  135.0917  155.3222 C.ar    1  UNL1        0.0009
     27 C         141.9009  133.6656  155.2656 C.ar    1  UNL1        0.0386
     28 C         142.9889  133.1924  156.1833 C.ar    1  UNL1        0.1672
     29 N         143.6155  134.1452  157.1576 N.ar    1  UNL1       -0.2252
     30 C         143.1541  135.5714  157.2143 C.ar    1  UNL1        0.0968
     31 N         143.4503  131.7663  156.1267 N.ar    1  UNL1       -0.1708
     32 C         142.6094  130.5558  156.4055 C.ar    1  UNL1        0.2272
     33 N         143.4731  129.3415  156.2325 N.ar    1  UNL1       -0.1044
     34 N         144.8477  129.8016  155.8468 N.ar    1  UNL1       -0.0222
     35 N         144.8337  131.3001  155.7814 N.ar    1  UNL1       -0.0371
@<TRIPOS>BOND
     1    13    14    1
     2    14    15   ar
     3     1    15    1
     4     1     2    1
     5     2     3    1
     6     3     4    1
     7     4     5    1
     8     5     6    1
     9     6     7   am
    10     7     8    2
    11     7    24    1
    12    24    25    1
    13    25    26   ar
    14    26    27   ar
    15    27    28   ar
    16    28    31    1
    17    31    32   ar
    18    32    33   ar
    19    33    34   ar
    20    34    35   ar
    21    28    29   ar
    22    29    30   ar
    23     6     9    1
    24    10     9    1
    25    10    11    1
    26    11    12    1
    27    15    16   ar
    28    16    17   ar
    29    17    18   ar
    30    18    19   ar
    31    19    20    1
    32    20    21    1
    33    21    22    1
    34    22    23    2
    35    19    14   ar
    36    12     1    1
    37    22    18    1
    38    10     3    1
    39    30    25   ar
    40    35    31   ar
@<TRIPOS>MOLECULE
*****
 35 40 0 0 0
SMALL
GASTEIGER

@<TRIPOS>ATOM
      1 C         141.7070  138.5715  158.0080 C.3     1  UNL1        0.0854
      2 C         141.1908  138.0295  159.3079 C.3     1  UNL1        0.0875
      3 N         141.9104  138.3374  160.5874 N.3     1  UNL1       -0.2692
      4 C         141.3943  137.7954  161.8874 C.3     1  UNL1        0.0939
      5 C         142.1139  138.1033  163.1669 C.3     1  UNL1        0.1107
      6 N         143.3497  138.9533  163.1466 N.am    1  UNL1       -0.2764
      7 C         144.0693  139.2612  164.4262 C.2     1  UNL1        0.2302
      8 O         145.3051  140.1112  164.4059 O.2     1  UNL1       -0.2745
      9 C         143.8659  139.4953  161.8467 C.3     1  UNL1        0.1102
     10 C         143.1462  139.1874  160.5670 C.3     1  UNL1        0.0884
     11 C         143.6624  139.7294  159.2672 C.3     1  UNL1        0.0755
     12 S         142.9427  139.4215  157.9876 S.3     1  UNL1       -0.1338
     13 C         142.4072  136.1058  156.4491 C.3     1  UNL1        0.0305
     14 C         141.3375  137.0307  155.9489 C.ar    1  UNL1       -0.0252
     15 C         140.9873  138.2636  156.7283 C.ar    1  UNL1       -0.0153
     16 C         139.9176  139.1885  156.2282 C.ar    1  UNL1       -0.0035
     17 C         139.1980  138.8806  154.9486 C.ar    1  UNL1        0.0059
     18 C         139.5481  137.6478  154.1692 C.ar    1  UNL1        0.0748
     19 C         140.6178  136.7228  154.6693 C.ar    1  UNL1        0.0233
     20 C         140.7455  135.5910  153.6933 C.3     1  UNL1        0.2352
     21 O         139.7547  135.8164  152.5899 O.3     1  UNL1       -0.4404
     22 C         139.0146  137.0876  152.8841 C.2     1  UNL1        0.3413
     23 O         137.9313  137.6924  152.0410 O.2     1  UNL1       -0.2449
     24 C         143.5532  138.7192  165.7261 C.3     1  UNL1        0.1131
     25 C         142.8143  139.6179  166.6728 C.ar    1  UNL1        0.0062
     26 C         142.6590  139.2257  168.1123 C.ar    1  UNL1        0.0009
     27 C         141.9201  140.1244  169.0590 C.ar    1  UNL1        0.0386
     28 C         141.3365  141.4153  168.5663 C.ar    1  UNL1        0.1672
     29 N         141.4917  141.8076  167.1269 N.ar    1  UNL1       -0.2252
     30 C         142.2306  140.9089  166.1801 C.ar    1  UNL1        0.0968
     31 N         140.5976  142.3140  169.5131 N.ar    1  UNL1       -0.1708
     32 C         140.5804  143.8134  169.4733 C.ar    1  UNL1        0.2272
     33 N         139.7183  144.2972  170.6015 N.ar    1  UNL1       -0.1044
     34 N         139.2026  143.0968  171.3385 N.ar    1  UNL1       -0.0222
     35 N         139.7461  141.8712  170.6659 N.ar    1  UNL1       -0.0371
@<TRIPOS>BOND
     1    13    14    1
     2    14    15   ar
     3     1    15    1
     4     1     2    1
     5     2     3    1
     6     3     4    1
     7     4     5    1
     8     5     6    1
     9     6     7   am
    10     7     8    2
    11     7    24    1
    12    24    25    1
    13    25    26   ar
    14    26    27   ar
    15    27    28   ar
    16    28    31    1
    17    31    32   ar
    18    32    33   ar
    19    33    34   ar
    20    34    35   ar
    21    28    29   ar
    22    29    30   ar
    23     6     9    1
    24    10     9    1
    25    10    11    1
    26    11    12    1
    27    15    16   ar
    28    16    17   ar
    29    17    18   ar
    30    18    19   ar
    31    19    20    1
    32    20    21    1
    33    21    22    1
    34    22    23    2
    35    19    14   ar
    36    12     1    1
    37    22    18    1
    38    10     3    1
    39    30    25   ar
    40    35    31   ar
@<TRIPOS>MOLECULE
*****
 35 40 0 0 0
SMALL
GASTEIGER

@<TRIPOS>ATOM
      1 C         143.9834  142.3302  158.1544 C.3     1  UNL1        0.0854
      2 C         143.8064  141.2867  159.2173 C.3     1  UNL1        0.0875
      3 N         142.6322  141.3560  160.1480 N.3     1  UNL1       -0.2692
      4 C         142.4551  140.3125  161.2110 C.3     1  UNL1        0.0939
      5 C         141.2809  140.3818  162.1418 C.3     1  UNL1        0.1107
      6 N         140.2837  141.4945  162.0096 N.am    1  UNL1       -0.2764
      7 C         139.1094  141.5637  162.9404 C.2     1  UNL1        0.2302
      8 O         138.1122  142.6764  162.8082 O.2     1  UNL1       -0.2745
      9 C         140.4607  142.5379  160.9467 C.3     1  UNL1        0.1102
     10 C         141.6350  142.4687  160.0158 C.3     1  UNL1        0.0884
     11 C         141.8120  143.5121  158.9529 C.3     1  UNL1        0.0755
     12 S         142.9862  143.4429  158.0222 S.3     1  UNL1       -0.1338
     13 C         143.6511  141.1812  155.4031 C.3     1  UNL1        0.0305
     14 C         144.9915  141.6865  155.8479 C.ar    1  UNL1       -0.0252
     15 C         145.1577  142.2610  157.2235 C.ar    1  UNL1       -0.0153
     16 C         146.4982  142.7662  157.6684 C.ar    1  UNL1       -0.0035
     17 C         147.6724  142.6970  156.7377 C.ar    1  UNL1        0.0059
     18 C         147.5063  142.1226  155.3620 C.ar    1  UNL1        0.0748
     19 C         146.1658  141.6173  154.9171 C.ar    1  UNL1        0.0233
     20 C         146.3051  141.1077  153.5133 C.3     1  UNL1        0.2352
     21 O         147.7316  141.2981  153.0905 O.3     1  UNL1       -0.4404
     22 C         148.4740  141.9253  154.2331 C.2     1  UNL1        0.3413
     23 O         149.9287  142.2910  154.2446 O.2     1  UNL1       -0.2449
     24 C         138.9324  140.5202  164.0033 C.3     1  UNL1        0.1131
     25 C         139.3286  140.8173  165.4192 C.ar    1  UNL1        0.0062
     26 C         139.0722  139.8066  166.4976 C.ar    1  UNL1        0.0009
     27 C         139.4684  140.1036  167.9135 C.ar    1  UNL1        0.0386
     28 C         140.1209  141.4114  168.2511 C.ar    1  UNL1        0.1672
     29 N         140.3772  142.4221  167.1728 N.ar    1  UNL1       -0.2252
     30 C         139.9810  142.1251  165.7568 C.ar    1  UNL1        0.0968
     31 N         140.5170  141.7084  169.6670 N.ar    1  UNL1       -0.1708
     32 C         141.9183  141.8879  170.1713 C.ar    1  UNL1        0.2272
     33 N         141.8488  142.1686  171.6433 N.ar    1  UNL1       -0.1044
     34 N         140.4045  142.1626  172.0486 N.ar    1  UNL1       -0.0222
     35 N         139.5815  141.8782  170.8272 N.ar    1  UNL1       -0.0371
@<TRIPOS>BOND
     1    13    14    1
     2    14    15   ar
     3     1    15    1
     4     1     2    1
     5     2     3    1
     6     3     4    1
     7     4     5    1
     8     5     6    1
     9     6     7   am
    10     7     8    2
    11     7    24    1
    12    24    25    1
    13    25    26   ar
    14    26    27   ar
    15    27    28   ar
    16    28    31    1
    17    31    32   ar
    18    32    33   ar
    19    33    34   ar
    20    34    35   ar
    21    28    29   ar
    22    29    30   ar
    23     6     9    1
    24    10     9    1
    25    10    11    1
    26    11    12    1
    27    15    16   ar
    28    16    17   ar
    29    17    18   ar
    30    18    19   ar
    31    19    20    1
    32    20    21    1
    33    21    22    1
    34    22    23    2
    35    19    14   ar
    36    12     1    1
    37    22    18    1
    38    10     3    1
    39    30    25   ar
    40    35    31   ar
