@<TRIPOS>MOLECULE
*****
 32 34 0 0 0
SMALL
GASTEIGER

@<TRIPOS>ATOM
      1 C         142.4658  143.5468  163.3330 C.3     1  UNL1        0.1102
      2 C         140.9973  143.6075  163.6325 C.3     1  UNL1        0.0296
      3 C         140.3732  142.5859  164.5362 C.3     1  UNL1        0.0730
      4 N         141.2177  141.5034  165.1404 N.3     1  UNL1       -0.2689
      5 C         142.6862  141.4426  164.8410 C.3     1  UNL1        0.0730
      6 C         143.3103  142.4643  163.9373 C.3     1  UNL1        0.0296
      7 C         143.8023  143.9052  162.7539 C.2     1  UNL1        0.3177
      8 O         144.2696  145.3304  162.7718 O.2     1  UNL1       -0.2501
      9 C         144.7479  142.6798  160.6672 C.3     1  UNL1        0.2556
     10 O         144.6714  142.8384  162.1568 O.3     1  UNL1       -0.4444
     11 C         142.0854  144.7537  162.5277 C.3     1  UNL1        0.1002
     12 N         142.2373  144.7379  161.0355 N.am    1  UNL1       -0.3003
     13 C         141.0880  145.1421  160.1603 C.2     1  UNL1        0.2459
     14 O         139.7869  145.5621  160.7774 O.2     1  UNL1       -0.2701
     15 H         143.0912  144.4623  160.6305 H       1  UNL1        0.1498
     16 C         141.2398  145.1264  158.6681 C.ar    1  UNL1        0.0550
     17 C         140.4193  146.0531  157.8209 C.ar    1  UNL1        0.0160
     18 C         140.5711  146.0373  156.3287 C.ar    1  UNL1        0.0587
     19 CL        139.7505  146.9641  155.4815 Cl      1  UNL1       -0.0822
     20 C         141.5435  145.0949  155.6837 C.ar    1  UNL1        0.0228
     21 C         142.3642  144.1681  156.5309 C.ar    1  UNL1        0.0587
     22 CL        143.3366  143.2256  155.8859 Cl      1  UNL1       -0.0822
     23 C         142.2123  144.1838  158.0231 C.ar    1  UNL1        0.0160
     24 C         140.5937  140.4817  166.0441 C.3     1  UNL1        0.0992
     25 C         140.3126  140.8206  167.4780 C.ar    1  UNL1       -0.0031
     26 C         139.2912  140.0366  168.2477 C.ar    1  UNL1       -0.0027
     27 C         139.0101  140.3755  169.6816 C.ar    1  UNL1        0.0028
     28 C         139.7503  141.4982  170.3460 C.ar    1  UNL1        0.0369
     29 C         140.7717  142.2822  169.5764 C.ar    1  UNL1        0.1385
     30 C         141.0528  141.9433  168.1425 C.ar    1  UNL1        0.0340
     31 O         141.5120  143.4049  170.2408 O.3     1  UNL1       -0.4714
     32 C         142.9541  143.2341  170.6161 C.3     1  UNL1        0.2525
@<TRIPOS>BOND
     1     9    10    1
     2    10     7    1
     3     7     8    2
     4     7     1    1
     5     1    11    1
     6    11    12    1
     7    12    13   am
     8    13    14    2
     9    13    16    1
    10    16    17   ar
    11    17    18   ar
    12    18    19    1
    13    18    20   ar
    14    20    21   ar
    15    21    22    1
    16    21    23   ar
    17     1     2    1
    18     2     3    1
    19     3     4    1
    20     4    24    1
    21    24    25    1
    22    25    26   ar
    23    26    27   ar
    24    27    28   ar
    25    28    29   ar
    26    29    31    1
    27    31    32    1
    28    29    30   ar
    29     4     5    1
    30     5     6    1
    31     6     1    1
    32    23    16   ar
    33    30    25   ar
    34    12    15    1
@<TRIPOS>MOLECULE
*****
 32 34 0 0 0
SMALL
GASTEIGER

@<TRIPOS>ATOM
      1 C         142.0498  144.3217  164.0021 C.3     1  UNL1        0.1102
      2 C         140.5552  144.1993  163.9705 C.3     1  UNL1        0.0296
      3 C         139.8626  143.2295  164.8813 C.3     1  UNL1        0.0730
      4 N         140.6647  142.3819  165.8239 N.3     1  UNL1       -0.2689
      5 C         142.1593  142.5042  165.8555 C.3     1  UNL1        0.0730
      6 C         142.8519  143.4741  164.9447 C.3     1  UNL1        0.0296
      7 C         143.4328  144.7955  163.6659 C.2     1  UNL1        0.3177
      8 O         144.2185  145.5877  164.6684 O.2     1  UNL1       -0.2501
      9 C         144.5900  143.1113  162.0615 C.3     1  UNL1        0.2556
     10 O         144.0299  144.4771  162.3273 O.3     1  UNL1       -0.4444
     11 C         141.7280  145.3337  162.9429 C.3     1  UNL1        0.1002
     12 N         141.5055  144.8923  161.5267 N.am    1  UNL1       -0.3003
     13 C         140.3524  145.4438  160.7416 C.2     1  UNL1        0.2459
     14 O         139.4219  146.4367  161.3727 O.2     1  UNL1       -0.2701
     15 H         142.1162  144.2406  161.1124 H       1  UNL1        0.1498
     16 C         140.1299  145.0024  159.3254 C.ar    1  UNL1        0.0550
     17 C         139.6450  143.6119  159.0406 C.ar    1  UNL1        0.0160
     18 C         139.4225  143.1704  157.6244 C.ar    1  UNL1        0.0587
     19 CL        138.9375  141.7798  157.3397 Cl      1  UNL1       -0.0822
     20 C         139.6848  144.1196  156.4930 C.ar    1  UNL1        0.0228
     21 C         140.1698  145.5103  156.7777 C.ar    1  UNL1        0.0587
     22 CL        140.4322  146.4594  155.6462 Cl      1  UNL1       -0.0822
     23 C         140.3923  145.9517  158.1939 C.ar    1  UNL1        0.0160
     24 C         139.9721  141.4121  166.7347 C.3     1  UNL1        0.0992
     25 C         139.5417  140.0721  166.2158 C.ar    1  UNL1       -0.0031
     26 C         138.4887  139.2893  166.9428 C.ar    1  UNL1       -0.0027
     27 C         138.0583  137.9493  166.4239 C.ar    1  UNL1        0.0028
     28 C         138.6808  137.3922  165.1781 C.ar    1  UNL1        0.0369
     29 C         139.7338  138.1750  164.4511 C.ar    1  UNL1        0.1385
     30 C         140.1642  139.5150  164.9700 C.ar    1  UNL1        0.0340
     31 O         140.3563  137.6178  163.2053 O.3     1  UNL1       -0.4714
     32 C         141.8323  137.7569  162.9775 C.3     1  UNL1        0.2525
@<TRIPOS>BOND
     1     9    10    1
     2    10     7    1
     3     7     8    2
     4     7     1    1
     5     1    11    1
     6    11    12    1
     7    12    13   am
     8    13    14    2
     9    13    16    1
    10    16    17   ar
    11    17    18   ar
    12    18    19    1
    13    18    20   ar
    14    20    21   ar
    15    21    22    1
    16    21    23   ar
    17     1     2    1
    18     2     3    1
    19     3     4    1
    20     4    24    1
    21    24    25    1
    22    25    26   ar
    23    26    27   ar
    24    27    28   ar
    25    28    29   ar
    26    29    31    1
    27    31    32    1
    28    29    30   ar
    29     4     5    1
    30     5     6    1
    31     6     1    1
    32    23    16   ar
    33    30    25   ar
    34    12    15    1
@<TRIPOS>MOLECULE
*****
 32 34 0 0 0
SMALL
GASTEIGER

@<TRIPOS>ATOM
      1 C         141.5777  139.1284  158.8998 C.3     1  UNL1        0.1102
      2 C         140.2282  138.9104  158.2823 C.3     1  UNL1        0.0296
      3 C         138.9930  139.3733  158.9963 C.3     1  UNL1        0.0730
      4 N         139.1073  140.0543  160.3280 N.3     1  UNL1       -0.2689
      5 C         140.4567  140.2723  160.9455 C.3     1  UNL1        0.0730
      6 C         141.6919  139.8094  160.2315 C.3     1  UNL1        0.0296
      7 C         143.0672  139.1075  159.0762 C.2     1  UNL1        0.3177
      8 O         143.6661  138.5399  160.3288 O.2     1  UNL1       -0.2501
      9 C         144.4083  141.0837  158.0535 C.3     1  UNL1        0.2556
     10 O         143.9576  139.6540  157.9999 O.3     1  UNL1       -0.4444
     11 C         141.9807  138.4402  157.6294 C.3     1  UNL1        0.1002
     12 N         142.4038  137.0014  157.6576 N.am    1  UNL1       -0.3003
     13 C         142.1579  136.1238  156.4661 C.2     1  UNL1        0.2459
     14 O         141.4888  136.6851  155.2466 O.2     1  UNL1       -0.2701
     15 H         142.8430  136.6330  158.4580 H       1  UNL1        0.1498
     16 C         142.5810  134.6850  156.4943 C.ar    1  UNL1        0.0550
     17 C         141.8105  133.6613  155.7144 C.ar    1  UNL1        0.0160
     18 C         142.2337  132.2225  155.7426 C.ar    1  UNL1        0.0587
     19 CL        141.4632  131.1987  154.9626 Cl      1  UNL1       -0.0822
     20 C         143.4273  131.8074  156.5506 C.ar    1  UNL1        0.0228
     21 C         144.1978  132.8312  157.3306 C.ar    1  UNL1        0.0587
     22 CL        145.3914  132.4162  158.1386 Cl      1  UNL1       -0.0822
     23 C         143.7747  134.2700  157.3024 C.ar    1  UNL1        0.0160
     24 C         137.8720  140.5172  161.0421 C.3     1  UNL1        0.0992
     25 C         137.9551  141.6396  162.0336 C.ar    1  UNL1       -0.0031
     26 C         137.6709  141.3819  163.4837 C.ar    1  UNL1       -0.0027
     27 C         137.7540  142.5044  164.4754 C.ar    1  UNL1        0.0028
     28 C         138.1212  143.8845  164.0169 C.ar    1  UNL1        0.0369
     29 C         138.4054  144.1423  162.5667 C.ar    1  UNL1        0.1385
     30 C         138.3223  143.0198  161.5752 C.ar    1  UNL1        0.0340
     31 O         138.7726  145.5225  162.1083 O.3     1  UNL1       -0.4714
     32 C         139.9948  145.7322  161.2643 C.3     1  UNL1        0.2525
@<TRIPOS>BOND
     1     9    10    1
     2    10     7    1
     3     7     8    2
     4     7     1    1
     5     1    11    1
     6    11    12    1
     7    12    13   am
     8    13    14    2
     9    13    16    1
    10    16    17   ar
    11    17    18   ar
    12    18    19    1
    13    18    20   ar
    14    20    21   ar
    15    21    22    1
    16    21    23   ar
    17     1     2    1
    18     2     3    1
    19     3     4    1
    20     4    24    1
    21    24    25    1
    22    25    26   ar
    23    26    27   ar
    24    27    28   ar
    25    28    29   ar
    26    29    31    1
    27    31    32    1
    28    29    30   ar
    29     4     5    1
    30     5     6    1
    31     6     1    1
    32    23    16   ar
    33    30    25   ar
    34    12    15    1
@<TRIPOS>MOLECULE
*****
 32 34 0 0 0
SMALL
GASTEIGER

@<TRIPOS>ATOM
      1 C         143.2479  139.2308  159.7631 C.3     1  UNL1        0.1102
      2 C         142.5012  138.0109  160.2150 C.3     1  UNL1        0.0296
      3 C         142.3344  137.7333  161.6796 C.3     1  UNL1        0.0730
      4 N         142.9143  138.6757  162.6924 N.3     1  UNL1       -0.2689
      5 C         143.6610  139.8956  162.2405 C.3     1  UNL1        0.0730
      6 C         143.8278  140.1732  160.7759 C.3     1  UNL1        0.0296
      7 C         143.8680  140.2459  158.8493 C.2     1  UNL1        0.3177
      8 O         144.5423  139.8036  157.5845 O.2     1  UNL1       -0.2501
      9 C         143.7454  142.7345  158.1131 C.3     1  UNL1        0.2556
     10 O         143.8138  141.7032  159.2002 O.3     1  UNL1       -0.4444
     11 C         142.8834  138.6409  158.4331 C.3     1  UNL1        0.1002
     12 N         142.9912  137.1609  158.2140 N.am    1  UNL1       -0.3003
     13 C         142.6218  136.5705  156.8855 C.2     1  UNL1        0.2459
     14 O         142.1446  137.4601  155.7760 O.2     1  UNL1       -0.2701
     15 H         143.3043  136.5771  158.9422 H       1  UNL1        0.1498
     16 C         142.7295  135.0905  156.6665 C.ar    1  UNL1        0.0550
     17 C         141.8079  134.4061  155.7010 C.ar    1  UNL1        0.0160
     18 C         141.9157  132.9261  155.4820 C.ar    1  UNL1        0.0587
     19 CL        140.9940  132.2417  154.5164 Cl      1  UNL1       -0.0822
     20 C         142.9451  132.1305  156.2284 C.ar    1  UNL1        0.0228
     21 C         143.8668  132.8148  157.1940 C.ar    1  UNL1        0.0587
     22 CL        144.8962  132.0192  157.9405 Cl      1  UNL1       -0.0822
     23 C         143.7590  134.2949  157.4130 C.ar    1  UNL1        0.0160
     24 C         142.7475  138.3981  164.1570 C.3     1  UNL1        0.0992
     25 C         141.3895  138.4889  164.7876 C.ar    1  UNL1       -0.0031
     26 C         140.3020  137.5459  164.3655 C.ar    1  UNL1       -0.0027
     27 C         138.9440  137.6365  164.9961 C.ar    1  UNL1        0.0028
     28 C         138.6735  138.6702  166.0489 C.ar    1  UNL1        0.0369
     29 C         139.7610  139.6132  166.4711 C.ar    1  UNL1        0.1385
     30 C         141.1190  139.5225  165.8404 C.ar    1  UNL1        0.0340
     31 O         139.4905  140.6468  167.5239 O.3     1  UNL1       -0.4714
     32 C         139.7576  140.3356  168.9667 C.3     1  UNL1        0.2525
@<TRIPOS>BOND
     1     9    10    1
     2    10     7    1
     3     7     8    2
     4     7     1    1
     5     1    11    1
     6    11    12    1
     7    12    13   am
     8    13    14    2
     9    13    16    1
    10    16    17   ar
    11    17    18   ar
    12    18    19    1
    13    18    20   ar
    14    20    21   ar
    15    21    22    1
    16    21    23   ar
    17     1     2    1
    18     2     3    1
    19     3     4    1
    20     4    24    1
    21    24    25    1
    22    25    26   ar
    23    26    27   ar
    24    27    28   ar
    25    28    29   ar
    26    29    31    1
    27    31    32    1
    28    29    30   ar
    29     4     5    1
    30     5     6    1
    31     6     1    1
    32    23    16   ar
    33    30    25   ar
    34    12    15    1
@<TRIPOS>MOLECULE
*****
 32 34 0 0 0
SMALL
GASTEIGER

@<TRIPOS>ATOM
      1 C         144.0832  140.1211  162.0376 C.3     1  UNL1        0.1102
      2 C         143.4057  138.7935  162.2063 C.3     1  UNL1        0.0296
      3 C         142.6861  138.1663  161.0493 C.3     1  UNL1        0.0730
      4 N         142.6440  138.8667  159.7235 N.3     1  UNL1       -0.2689
      5 C         143.3214  140.1942  159.5548 C.3     1  UNL1        0.0730
      6 C         144.0411  140.8215  160.7118 C.3     1  UNL1        0.0296
      7 C         144.8703  141.3542  162.3693 C.2     1  UNL1        0.3177
      8 O         145.9946  141.2825  163.3596 O.2     1  UNL1       -0.2501
      9 C         144.3830  143.9005  162.5389 C.3     1  UNL1        0.2556
     10 O         144.5330  142.6589  161.7107 O.3     1  UNL1       -0.4444
     11 C         144.3986  139.8489  163.4785 C.3     1  UNL1        0.1002
     12 N         143.2888  139.5836  164.4521 N.am    1  UNL1       -0.3003
     13 C         142.8808  140.6440  165.4315 C.2     1  UNL1        0.2459
     14 O         143.5826  141.9697  165.4373 O.2     1  UNL1       -0.2701
     15 H         142.8282  138.7135  164.4483 H       1  UNL1        0.1498
     16 C         141.7709  140.3787  166.4051 C.ar    1  UNL1        0.0550
     17 C         140.4313  139.9216  165.9089 C.ar    1  UNL1        0.0160
     18 C         139.3214  139.6563  166.8825 C.ar    1  UNL1        0.0587
     19 CL        137.9817  139.1992  166.3862 Cl      1  UNL1       -0.0822
     20 C         139.5513  139.8480  168.3523 C.ar    1  UNL1        0.0228
     21 C         140.8910  140.3051  168.8486 C.ar    1  UNL1        0.0587
     22 CL        141.1209  140.4968  170.3184 Cl      1  UNL1       -0.0822
     23 C         142.0009  140.5704  167.8750 C.ar    1  UNL1        0.0160
     24 C         141.9243  138.2394  158.5665 C.3     1  UNL1        0.0992
     25 C         142.7023  137.5624  157.4773 C.ar    1  UNL1       -0.0031
     26 C         143.2800  138.3716  156.3541 C.ar    1  UNL1       -0.0027
     27 C         144.0581  137.6946  155.2649 C.ar    1  UNL1        0.0028
     28 C         144.2583  136.2084  155.2988 C.ar    1  UNL1        0.0369
     29 C         143.6806  135.3992  156.4220 C.ar    1  UNL1        0.1385
     30 C         142.9026  136.0763  157.5112 C.ar    1  UNL1        0.0340
     31 O         143.8809  133.9131  156.4558 O.3     1  UNL1       -0.4714
     32 C         144.3112  133.2430  157.7269 C.3     1  UNL1        0.2525
@<TRIPOS>BOND
     1     9    10    1
     2    10     7    1
     3     7     8    2
     4     7     1    1
     5     1    11    1
     6    11    12    1
     7    12    13   am
     8    13    14    2
     9    13    16    1
    10    16    17   ar
    11    17    18   ar
    12    18    19    1
    13    18    20   ar
    14    20    21   ar
    15    21    22    1
    16    21    23   ar
    17     1     2    1
    18     2     3    1
    19     3     4    1
    20     4    24    1
    21    24    25    1
    22    25    26   ar
    23    26    27   ar
    24    27    28   ar
    25    28    29   ar
    26    29    31    1
    27    31    32    1
    28    29    30   ar
    29     4     5    1
    30     5     6    1
    31     6     1    1
    32    23    16   ar
    33    30    25   ar
    34    12    15    1
@<TRIPOS>MOLECULE
*****
 32 34 0 0 0
SMALL
GASTEIGER

@<TRIPOS>ATOM
      1 C         141.6606  138.2059  158.7986 C.3     1  UNL1        0.1102
      2 C         142.9144  137.7514  159.4851 C.3     1  UNL1        0.0296
      3 C         142.9988  137.7708  160.9826 C.3     1  UNL1        0.0730
      4 N         141.8293  138.2447  161.7936 N.3     1  UNL1       -0.2689
      5 C         140.5755  138.6992  161.1071 C.3     1  UNL1        0.0730
      6 C         140.4911  138.6798  159.6096 C.3     1  UNL1        0.0296
      7 C         140.6966  138.5355  157.6976 C.2     1  UNL1        0.3177
      8 O         140.8364  139.8218  156.9386 O.2     1  UNL1       -0.2501
      9 C         139.1848  137.3851  155.9254 C.3     1  UNL1        0.2556
     10 O         139.5930  137.5790  157.3557 O.3     1  UNL1       -0.4444
     11 C         142.4953  137.8465  157.6053 C.3     1  UNL1        0.1002
     12 N         142.4279  136.4618  157.0324 N.am    1  UNL1       -0.3003
     13 C         143.4998  135.9835  156.0984 C.2     1  UNL1        0.2459
     14 O         144.6392  136.8899  155.7374 O.2     1  UNL1       -0.2701
     15 H         141.6800  135.8669  157.2693 H       1  UNL1        0.1498
     16 C         143.4324  134.5989  155.5255 C.ar    1  UNL1        0.0550
     17 C         144.1829  133.4783  156.1819 C.ar    1  UNL1        0.0160
     18 C         144.1154  132.0936  155.6090 C.ar    1  UNL1        0.0587
     19 CL        144.8660  130.9730  156.2654 Cl      1  UNL1       -0.0822
     20 C         143.2974  131.8296  154.3797 C.ar    1  UNL1        0.0228
     21 C         142.5468  132.9503  153.7233 C.ar    1  UNL1        0.0587
     22 CL        141.7288  132.6862  152.4940 Cl      1  UNL1       -0.0822
     23 C         142.6143  134.3349  154.2962 C.ar    1  UNL1        0.0160
     24 C         141.9137  138.2641  163.2911 C.3     1  UNL1        0.0992
     25 C         140.7272  138.6906  164.1037 C.ar    1  UNL1       -0.0031
     26 C         139.7750  137.6618  164.6376 C.ar    1  UNL1       -0.0027
     27 C         138.5884  138.0882  165.4502 C.ar    1  UNL1        0.0028
     28 C         138.3541  139.5433  165.7289 C.ar    1  UNL1        0.0369
     29 C         139.3063  140.5721  165.1950 C.ar    1  UNL1        0.1385
     30 C         140.4928  140.1456  164.3825 C.ar    1  UNL1        0.0340
     31 O         139.0720  142.0271  165.4738 O.3     1  UNL1       -0.4714
     32 C         140.1526  142.8533  166.1060 C.3     1  UNL1        0.2525
@<TRIPOS>BOND
     1     9    10    1
     2    10     7    1
     3     7     8    2
     4     7     1    1
     5     1    11    1
     6    11    12    1
     7    12    13   am
     8    13    14    2
     9    13    16    1
    10    16    17   ar
    11    17    18   ar
    12    18    19    1
    13    18    20   ar
    14    20    21   ar
    15    21    22    1
    16    21    23   ar
    17     1     2    1
    18     2     3    1
    19     3     4    1
    20     4    24    1
    21    24    25    1
    22    25    26   ar
    23    26    27   ar
    24    27    28   ar
    25    28    29   ar
    26    29    31    1
    27    31    32    1
    28    29    30   ar
    29     4     5    1
    30     5     6    1
    31     6     1    1
    32    23    16   ar
    33    30    25   ar
    34    12    15    1
@<TRIPOS>MOLECULE
*****
 32 34 0 0 0
SMALL
GASTEIGER

@<TRIPOS>ATOM
      1 C         138.5892  139.5212  163.4150 C.3     1  UNL1        0.1102
      2 C         138.4196  140.8235  164.1398 C.3     1  UNL1        0.0296
      3 C         138.6247  140.8879  165.6243 C.3     1  UNL1        0.0730
      4 N         138.9995  139.6499  166.3840 N.3     1  UNL1       -0.2689
      5 C         139.1691  138.3477  165.6592 C.3     1  UNL1        0.0730
      6 C         138.9640  138.2833  164.1747 C.3     1  UNL1        0.0296
      7 C         138.6341  138.5292  162.2907 C.2     1  UNL1        0.3177
      8 O         137.5086  138.4658  161.3011 O.2     1  UNL1       -0.2501
      9 C         140.9917  138.0048  161.3335 C.3     1  UNL1        0.2556
     10 O         139.8043  137.6007  162.1561 O.3     1  UNL1       -0.4444
     11 C         138.2300  140.4146  162.2649 C.3     1  UNL1        0.1002
     12 N         139.3113  141.0296  161.4267 N.am    1  UNL1       -0.3003
     13 C         139.1550  142.4290  160.9096 C.2     1  UNL1        0.2459
     14 O         137.9174  143.2133  161.2307 O.2     1  UNL1       -0.2701
     15 H         140.1236  140.5148  161.2160 H       1  UNL1        0.1498
     16 C         140.2363  143.0440  160.0715 C.ar    1  UNL1        0.0550
     17 C         141.6298  142.4912  160.1213 C.ar    1  UNL1        0.0160
     18 C         142.7111  143.1062  159.2832 C.ar    1  UNL1        0.0587
     19 CL        144.1046  142.5533  159.3331 Cl      1  UNL1       -0.0822
     20 C         142.3989  144.2741  158.3952 C.ar    1  UNL1        0.0228
     21 C         141.0054  144.8270  158.3452 C.ar    1  UNL1        0.0587
     22 CL        140.6932  145.9948  157.4572 Cl      1  UNL1       -0.0822
     23 C         139.9240  144.2119  159.1834 C.ar    1  UNL1        0.0160
     24 C         139.2047  139.7143  167.8685 C.3     1  UNL1        0.0992
     25 C         140.0484  140.8030  168.4625 C.ar    1  UNL1       -0.0031
     26 C         139.5968  141.5070  169.7077 C.ar    1  UNL1       -0.0027
     27 C         140.4405  142.5957  170.3018 C.ar    1  UNL1        0.0028
     28 C         141.7359  142.9804  169.6506 C.ar    1  UNL1        0.0369
     29 C         142.1875  142.2764  168.4054 C.ar    1  UNL1        0.1385
     30 C         141.3438  141.1878  167.8114 C.ar    1  UNL1        0.0340
     31 O         143.4829  142.6612  167.7543 O.3     1  UNL1       -0.4714
     32 C         143.6117  142.6238  166.2604 C.3     1  UNL1        0.2525
@<TRIPOS>BOND
     1     9    10    1
     2    10     7    1
     3     7     8    2
     4     7     1    1
     5     1    11    1
     6    11    12    1
     7    12    13   am
     8    13    14    2
     9    13    16    1
    10    16    17   ar
    11    17    18   ar
    12    18    19    1
    13    18    20   ar
    14    20    21   ar
    15    21    22    1
    16    21    23   ar
    17     1     2    1
    18     2     3    1
    19     3     4    1
    20     4    24    1
    21    24    25    1
    22    25    26   ar
    23    26    27   ar
    24    27    28   ar
    25    28    29   ar
    26    29    31    1
    27    31    32    1
    28    29    30   ar
    29     4     5    1
    30     5     6    1
    31     6     1    1
    32    23    16   ar
    33    30    25   ar
    34    12    15    1
@<TRIPOS>MOLECULE
*****
 32 34 0 0 0
SMALL
GASTEIGER

@<TRIPOS>ATOM
      1 C         143.1862  139.2720  159.5026 C.3     1  UNL1        0.1102
      2 C         142.4757  138.0373  159.9721 C.3     1  UNL1        0.0296
      3 C         142.3409  137.7621  161.4405 C.3     1  UNL1        0.0730
      4 N         142.9166  138.7218  162.4393 N.3     1  UNL1       -0.2689
      5 C         143.6271  139.9565  161.9698 C.3     1  UNL1        0.0730
      6 C         143.7620  140.2317  160.5014 C.3     1  UNL1        0.0296
      7 C         143.7669  140.2972  158.5741 C.2     1  UNL1        0.3177
      8 O         143.3609  141.7360  158.6973 O.2     1  UNL1       -0.2501
      9 C         145.3003  140.9009  156.5656 C.3     1  UNL1        0.2556
     10 O         144.7534  139.8836  157.5227 O.3     1  UNL1       -0.4444
     11 C         142.8122  138.6684  158.1814 C.3     1  UNL1        0.1002
     12 N         143.0042  137.1994  157.9467 N.am    1  UNL1       -0.3003
     13 C         142.3512  136.5362  156.7702 C.2     1  UNL1        0.2459
     14 O         141.5063  137.3420  155.8286 O.2     1  UNL1       -0.2701
     15 H         143.5587  136.6705  158.5647 H       1  UNL1        0.1498
     16 C         142.5433  135.0672  156.5355 C.ar    1  UNL1        0.0550
     17 C         143.5871  134.3147  157.3062 C.ar    1  UNL1        0.0160
     18 C         143.7792  132.8456  157.0715 C.ar    1  UNL1        0.0587
     19 CL        144.8231  132.0931  157.8423 Cl      1  UNL1       -0.0822
     20 C         142.9273  132.1291  156.0661 C.ar    1  UNL1        0.0228
     21 C         141.8834  132.8816  155.2953 C.ar    1  UNL1        0.0587
     22 CL        141.0315  132.1651  154.2899 Cl      1  UNL1       -0.0822
     23 C         141.6913  134.3506  155.5300 C.ar    1  UNL1        0.0160
     24 C         142.7818  138.4466  163.9077 C.3     1  UNL1        0.0992
     25 C         141.4769  138.7018  164.6018 C.ar    1  UNL1       -0.0031
     26 C         140.3850  137.6747  164.5474 C.ar    1  UNL1       -0.0027
     27 C         139.0799  137.9298  165.2416 C.ar    1  UNL1        0.0028
     28 C         138.8668  139.2121  165.9902 C.ar    1  UNL1        0.0369
     29 C         139.9586  140.2392  166.0446 C.ar    1  UNL1        0.1385
     30 C         141.2636  139.9840  165.3504 C.ar    1  UNL1        0.0340
     31 O         139.7454  141.5214  166.7932 O.3     1  UNL1       -0.4714
     32 C         140.1671  142.8252  166.1832 C.3     1  UNL1        0.2525
@<TRIPOS>BOND
     1     9    10    1
     2    10     7    1
     3     7     8    2
     4     7     1    1
     5     1    11    1
     6    11    12    1
     7    12    13   am
     8    13    14    2
     9    13    16    1
    10    16    17   ar
    11    17    18   ar
    12    18    19    1
    13    18    20   ar
    14    20    21   ar
    15    21    22    1
    16    21    23   ar
    17     1     2    1
    18     2     3    1
    19     3     4    1
    20     4    24    1
    21    24    25    1
    22    25    26   ar
    23    26    27   ar
    24    27    28   ar
    25    28    29   ar
    26    29    31    1
    27    31    32    1
    28    29    30   ar
    29     4     5    1
    30     5     6    1
    31     6     1    1
    32    23    16   ar
    33    30    25   ar
    34    12    15    1
@<TRIPOS>MOLECULE
*****
 32 34 0 0 0
SMALL
GASTEIGER

@<TRIPOS>ATOM
      1 C         140.7597  143.8067  161.9051 C.3     1  UNL1        0.1102
      2 C         142.1919  144.2335  162.0336 C.3     1  UNL1        0.0296
      3 C         143.1978  143.3079  162.6512 C.3     1  UNL1        0.0730
      4 N         142.7714  141.9555  163.1404 N.3     1  UNL1       -0.2689
      5 C         141.3392  141.5287  163.0119 C.3     1  UNL1        0.0730
      6 C         140.3333  142.4542  162.3942 C.3     1  UNL1        0.0296
      7 C         139.2994  143.8554  161.5657 C.2     1  UNL1        0.3177
      8 O         138.7470  142.9577  160.4984 O.2     1  UNL1       -0.2501
      9 C         137.7609  144.3882  163.5904 C.3     1  UNL1        0.2556
     10 O         138.3914  144.8018  162.2937 O.3     1  UNL1       -0.4444
     11 C         140.6789  145.1759  161.2981 C.3     1  UNL1        0.1002
     12 N         139.9459  145.3814  160.0056 N.am    1  UNL1       -0.3003
     13 C         140.7064  145.4468  158.7143 C.2     1  UNL1        0.2459
     14 O         142.1999  145.3067  158.7155 O.2     1  UNL1       -0.2701
     15 H         138.9657  145.4733  160.0048 H       1  UNL1        0.1498
     16 C         139.9734  145.6522  157.4218 C.ar    1  UNL1        0.0550
     17 C         139.8012  147.0359  156.8690 C.ar    1  UNL1        0.0160
     18 C         139.0682  147.2413  155.5765 C.ar    1  UNL1        0.0587
     19 CL        138.8959  148.6251  155.0237 Cl      1  UNL1       -0.0822
     20 C         138.5075  146.0630  154.8368 C.ar    1  UNL1        0.0228
     21 C         138.6797  144.6792  155.3896 C.ar    1  UNL1        0.0587
     22 CL        138.1190  143.5009  154.6499 Cl      1  UNL1       -0.0822
     23 C         139.4127  144.4738  156.6821 C.ar    1  UNL1        0.0160
     24 C         143.7773  141.0299  163.7581 C.3     1  UNL1        0.0992
     25 C         143.4941  140.3929  165.0862 C.ar    1  UNL1       -0.0031
     26 C         143.7988  138.9400  165.3014 C.ar    1  UNL1       -0.0027
     27 C         143.5156  138.3030  166.6296 C.ar    1  UNL1        0.0028
     28 C         142.9276  139.1188  167.7425 C.ar    1  UNL1        0.0369
     29 C         142.6229  140.5717  167.5273 C.ar    1  UNL1        0.1385
     30 C         142.9061  141.2087  166.1992 C.ar    1  UNL1        0.0340
     31 O         142.0349  141.3875  168.6403 O.3     1  UNL1       -0.4714
     32 C         141.0615  142.4862  168.3317 C.3     1  UNL1        0.2525
@<TRIPOS>BOND
     1     9    10    1
     2    10     7    1
     3     7     8    2
     4     7     1    1
     5     1    11    1
     6    11    12    1
     7    12    13   am
     8    13    14    2
     9    13    16    1
    10    16    17   ar
    11    17    18   ar
    12    18    19    1
    13    18    20   ar
    14    20    21   ar
    15    21    22    1
    16    21    23   ar
    17     1     2    1
    18     2     3    1
    19     3     4    1
    20     4    24    1
    21    24    25    1
    22    25    26   ar
    23    26    27   ar
    24    27    28   ar
    25    28    29   ar
    26    29    31    1
    27    31    32    1
    28    29    30   ar
    29     4     5    1
    30     5     6    1
    31     6     1    1
    32    23    16   ar
    33    30    25   ar
    34    12    15    1
