@<TRIPOS>MOLECULE
*****
 35 39 0 0 0
SMALL
GASTEIGER

@<TRIPOS>ATOM
      1 N         142.9432  144.2407  163.2446 N.3     1  UNL1       -0.2687
      2 C         142.7987  143.6094  161.8917 C.3     1  UNL1        0.0737
      3 C         141.4466  143.5136  161.2493 C.3     1  UNL1        0.0359
      4 C         140.2391  144.0492  161.9598 C.3     1  UNL1        0.0901
      5 C         140.3836  144.6806  163.3128 C.3     1  UNL1        0.1911
      6 F         139.1760  145.2162  164.0233 F       1  UNL1       -0.2343
      7 C         141.7356  144.7763  163.9552 C.3     1  UNL1        0.1092
      8 N         138.8869  143.9534  161.3174 N.3     1  UNL1       -0.2913
      9 H         139.0284  143.5468  160.3927 H       1  UNL1        0.1236
     10 C         137.7977  143.1607  161.9770 C.3     1  UNL1        0.1153
     11 C         138.0795  141.7782  162.4864 C.ar    1  UNL1        0.0782
     12 C         137.8550  141.4518  163.9332 C.ar    1  UNL1        0.0562
     13 C         138.1368  140.0694  164.4425 C.ar    1  UNL1        0.1752
     14 C         138.6430  139.0133  163.5052 C.ar    1  UNL1        0.1914
     15 C         138.8675  139.3398  162.0584 C.ar    1  UNL1        0.1384
     16 N         138.5857  140.7223  161.5491 N.ar    1  UNL1       -0.2434
     17 O         138.9248  137.6309  164.0145 O.3     1  UNL1       -0.4668
     18 C         138.7003  137.3045  165.4613 C.3     1  UNL1        0.2527
     19 C         138.1941  138.3604  166.3986 C.3     1  UNL1        0.2526
     20 O         137.9123  139.7429  165.8893 O.3     1  UNL1       -0.4683
     21 C         144.2953  144.3365  163.8870 C.3     1  UNL1        0.0970
     22 C         144.6418  143.4443  165.0420 C.3     1  UNL1        0.1263
     23 C         141.4412  141.8660  167.7833 C.ar    1  UNL1        0.0699
     24 C         141.0712  140.4129  167.7458 C.ar    1  UNL1        0.0104
     25 C         141.7681  139.4858  166.7946 C.ar    1  UNL1        0.0021
     26 C         142.8350  140.0119  165.8808 C.ar    1  UNL1        0.0161
     27 C         143.5318  139.0848  164.9295 C.ar    1  UNL1        0.0063
     28 C         144.5987  139.6109  164.0158 C.ar    1  UNL1        0.0608
     29 C         144.9687  141.0641  164.0532 C.ar    1  UNL1        0.2610
     30 O         146.0356  141.5902  163.1395 O.2     1  UNL1       -0.2670
     31 N         144.2718  141.9912  165.0045 N.ar    1  UNL1       -0.2941
     32 C         143.2049  141.4650  165.9183 C.ar    1  UNL1        0.0631
     33 C         142.5081  142.3921  166.8696 C.ar    1  UNL1        0.0275
     34 N         140.0475  143.7201  169.6859 N.1     1  UNL1       -0.1908
     35 C         140.7443  142.7931  168.7346 C.1     1  UNL1        0.1005
@<TRIPOS>BOND
     1    34    35    3
     2    35    23    1
     3    23    24   ar
     4    24    25   ar
     5    25    26   ar
     6    26    27   ar
     7    27    28   ar
     8    28    29   ar
     9    29    30    2
    10    29    31   ar
    11    31    22    1
    12    22    21    1
    13    21     1    1
    14     1     2    1
    15     2     3    1
    16     3     4    1
    17     4     8    1
    18     8    10    1
    19    10    11    1
    20    11    12   ar
    21    12    13   ar
    22    13    14   ar
    23    14    15   ar
    24    15    16   ar
    25    14    17    1
    26    17    18    1
    27    18    19    1
    28    19    20    1
    29     4     5    1
    30     5     6    1
    31     5     7    1
    32    31    32   ar
    33    32    33   ar
    34    33    23   ar
    35    32    26   ar
    36     7     1    1
    37    16    11   ar
    38    20    13    1
    39     8     9    1
@<TRIPOS>MOLECULE
*****
 35 39 0 0 0
SMALL
GASTEIGER

@<TRIPOS>ATOM
      1 N         138.0915  141.3188  163.8672 N.3     1  UNL1       -0.2687
      2 C         138.0213  141.5478  162.3864 C.3     1  UNL1        0.0737
      3 C         138.2019  142.9297  161.8317 C.3     1  UNL1        0.0359
      4 C         138.4527  144.0826  162.7578 C.3     1  UNL1        0.0901
      5 C         138.5228  143.8537  164.2386 C.3     1  UNL1        0.1911
      6 F         138.7736  145.0068  165.1647 F       1  UNL1       -0.2343
      7 C         138.3423  142.4718  164.7933 C.3     1  UNL1        0.1092
      8 N         138.6332  145.4646  162.2032 N.3     1  UNL1       -0.2913
      9 H         138.1974  146.1068  162.8650 H       1  UNL1        0.1236
     10 C         140.0120  145.9903  161.9337 C.3     1  UNL1        0.1153
     11 C         141.1810  145.0509  161.9075 C.ar    1  UNL1        0.0782
     12 C         141.9474  144.7719  163.1664 C.ar    1  UNL1        0.0562
     13 C         143.1164  143.8325  163.1403 C.ar    1  UNL1        0.1752
     14 C         143.5192  143.1719  161.8551 C.ar    1  UNL1        0.1914
     15 C         142.7528  143.4509  160.5962 C.ar    1  UNL1        0.1384
     16 N         141.5837  144.3904  160.6224 N.ar    1  UNL1       -0.2434
     17 O         144.6882  142.2325  161.8289 O.3     1  UNL1       -0.4668
     18 C         145.4546  141.9535  163.0879 C.3     1  UNL1        0.2527
     19 C         145.0519  142.6140  164.3730 C.3     1  UNL1        0.2526
     20 O         143.8828  143.5535  164.3992 O.3     1  UNL1       -0.4683
     21 C         137.9109  139.9369  164.4218 C.3     1  UNL1        0.0970
     22 C         138.4441  139.5993  165.7827 C.3     1  UNL1        0.1263
     23 C         140.6689  141.4731  169.2161 C.ar    1  UNL1        0.0699
     24 C         142.1317  141.1978  169.4015 C.ar    1  UNL1        0.0104
     25 C         142.8529  140.2979  168.4423 C.ar    1  UNL1        0.0021
     26 C         142.1113  139.6733  167.2978 C.ar    1  UNL1        0.0161
     27 C         142.8325  138.7733  166.3387 C.ar    1  UNL1        0.0063
     28 C         142.0909  138.1487  165.1942 C.ar    1  UNL1        0.0608
     29 C         140.6281  138.4240  165.0088 C.ar    1  UNL1        0.2610
     30 O         139.8865  137.7994  163.8644 O.2     1  UNL1       -0.2670
     31 N         139.9069  139.3240  165.9680 N.ar    1  UNL1       -0.2941
     32 C         140.6485  139.9486  167.1125 C.ar    1  UNL1        0.0631
     33 C         139.9273  140.8485  168.0717 C.ar    1  UNL1        0.0275
     34 N         139.2265  143.2730  171.1344 N.1     1  UNL1       -0.1908
     35 C         139.9477  142.3731  170.1753 C.1     1  UNL1        0.1005
@<TRIPOS>BOND
     1    34    35    3
     2    35    23    1
     3    23    24   ar
     4    24    25   ar
     5    25    26   ar
     6    26    27   ar
     7    27    28   ar
     8    28    29   ar
     9    29    30    2
    10    29    31   ar
    11    31    22    1
    12    22    21    1
    13    21     1    1
    14     1     2    1
    15     2     3    1
    16     3     4    1
    17     4     8    1
    18     8    10    1
    19    10    11    1
    20    11    12   ar
    21    12    13   ar
    22    13    14   ar
    23    14    15   ar
    24    15    16   ar
    25    14    17    1
    26    17    18    1
    27    18    19    1
    28    19    20    1
    29     4     5    1
    30     5     6    1
    31     5     7    1
    32    31    32   ar
    33    32    33   ar
    34    33    23   ar
    35    32    26   ar
    36     7     1    1
    37    16    11   ar
    38    20    13    1
    39     8     9    1
@<TRIPOS>MOLECULE
*****
 35 39 0 0 0
SMALL
GASTEIGER

@<TRIPOS>ATOM
      1 N         138.1388  139.9677  163.0276 N.3     1  UNL1       -0.2687
      2 C         137.9226  140.8253  164.2391 C.3     1  UNL1        0.0737
      3 C         137.7740  142.3104  164.0898 C.3     1  UNL1        0.0359
      4 C         137.8416  142.9379  162.7290 C.3     1  UNL1        0.0901
      5 C         138.0577  142.0802  161.5176 C.3     1  UNL1        0.1911
      6 F         138.1252  142.7077  160.1567 F       1  UNL1       -0.2343
      7 C         138.2063  140.5951  161.6669 C.3     1  UNL1        0.1092
      8 N         137.6930  144.4231  162.5797 N.3     1  UNL1       -0.2913
      9 H         137.0044  144.7211  163.2707 H       1  UNL1        0.1236
     10 C         138.8865  145.3165  162.7445 C.3     1  UNL1        0.1153
     11 C         140.2700  144.7501  162.6219 C.ar    1  UNL1        0.0782
     12 C         141.0103  144.3065  163.8488 C.ar    1  UNL1        0.0562
     13 C         142.3938  143.7401  163.7262 C.ar    1  UNL1        0.1752
     14 C         143.0371  143.6173  162.3766 C.ar    1  UNL1        0.1914
     15 C         142.2968  144.0610  161.1498 C.ar    1  UNL1        0.1384
     16 N         140.9133  144.6274  161.2724 N.ar    1  UNL1       -0.2434
     17 O         144.4206  143.0509  162.2540 O.3     1  UNL1       -0.4668
     18 C         145.1609  142.6073  163.4809 C.3     1  UNL1        0.2527
     19 C         144.5176  142.7300  164.8304 C.3     1  UNL1        0.2526
     20 O         143.1340  143.2964  164.9530 O.3     1  UNL1       -0.4683
     21 C         138.2873  138.4825  163.1770 C.3     1  UNL1        0.0970
     22 C         139.1201  137.9203  164.2907 C.3     1  UNL1        0.1263
     23 C         140.4718  140.0355  168.0255 C.ar    1  UNL1        0.0699
     24 C         141.9050  140.4523  168.1744 C.ar    1  UNL1        0.0104
     25 C         142.8877  140.1640  167.0783 C.ar    1  UNL1        0.0021
     26 C         142.4371  139.4590  165.8334 C.ar    1  UNL1        0.0161
     27 C         143.4197  139.1707  164.7373 C.ar    1  UNL1        0.0063
     28 C         142.9692  138.4657  163.4924 C.ar    1  UNL1        0.0608
     29 C         141.5359  138.0488  163.3435 C.ar    1  UNL1        0.2610
     30 O         141.0854  137.3438  162.0986 O.2     1  UNL1       -0.2670
     31 N         140.5533  138.3371  164.4396 N.ar    1  UNL1       -0.2941
     32 C         141.0039  139.0422  165.6845 C.ar    1  UNL1        0.0631
     33 C         140.0213  139.3304  166.7806 C.ar    1  UNL1        0.0275
     34 N         138.5066  140.6120  170.2176 N.1     1  UNL1       -0.1908
     35 C         139.4892  140.3237  169.1216 C.1     1  UNL1        0.1005
@<TRIPOS>BOND
     1    34    35    3
     2    35    23    1
     3    23    24   ar
     4    24    25   ar
     5    25    26   ar
     6    26    27   ar
     7    27    28   ar
     8    28    29   ar
     9    29    30    2
    10    29    31   ar
    11    31    22    1
    12    22    21    1
    13    21     1    1
    14     1     2    1
    15     2     3    1
    16     3     4    1
    17     4     8    1
    18     8    10    1
    19    10    11    1
    20    11    12   ar
    21    12    13   ar
    22    13    14   ar
    23    14    15   ar
    24    15    16   ar
    25    14    17    1
    26    17    18    1
    27    18    19    1
    28    19    20    1
    29     4     5    1
    30     5     6    1
    31     5     7    1
    32    31    32   ar
    33    32    33   ar
    34    33    23   ar
    35    32    26   ar
    36     7     1    1
    37    16    11   ar
    38    20    13    1
    39     8     9    1
@<TRIPOS>MOLECULE
*****
 35 39 0 0 0
SMALL
GASTEIGER

@<TRIPOS>ATOM
      1 N         144.5651  140.3129  163.4701 N.3     1  UNL1       -0.2687
      2 C         144.1479  140.1773  162.0358 C.3     1  UNL1        0.0737
      3 C         143.0985  139.1768  161.6513 C.3     1  UNL1        0.0359
      4 C         142.4665  138.3119  162.7013 C.3     1  UNL1        0.0901
      5 C         142.8837  138.4475  164.1357 C.3     1  UNL1        0.1911
      6 F         142.2516  137.5826  165.1857 F       1  UNL1       -0.2343
      7 C         143.9331  139.4480  164.5201 C.3     1  UNL1        0.1092
      8 N         141.4170  137.3113  162.3169 N.3     1  UNL1       -0.2913
      9 H         141.3027  136.6839  163.1129 H       1  UNL1        0.1236
     10 C         140.0439  137.7755  161.9307 C.3     1  UNL1        0.1153
     11 C         139.4333  138.9622  162.6152 C.ar    1  UNL1        0.0782
     12 C         139.2977  140.2636  161.8817 C.ar    1  UNL1        0.0562
     13 C         138.6870  141.4503  162.5662 C.ar    1  UNL1        0.1752
     14 C         138.2118  141.3358  163.9844 C.ar    1  UNL1        0.1914
     15 C         138.3474  140.0344  164.7180 C.ar    1  UNL1        0.1384
     16 N         138.9582  138.8476  164.0333 N.ar    1  UNL1       -0.2434
     17 O         137.6012  142.5225  164.6689 O.3     1  UNL1       -0.4668
     18 C         137.4656  143.8238  163.9353 C.3     1  UNL1        0.2527
     19 C         137.9407  143.9384  162.5172 C.3     1  UNL1        0.2526
     20 O         138.5514  142.7516  161.8326 O.3     1  UNL1       -0.4683
     21 C         145.6146  141.3135  163.8545 C.3     1  UNL1        0.0970
     22 C         145.2168  142.6045  164.5064 C.3     1  UNL1        0.1263
     23 C         142.3016  141.7400  167.8237 C.ar    1  UNL1        0.0699
     24 C         140.8860  142.2258  167.7236 C.ar    1  UNL1        0.0104
     25 C         140.4421  142.9998  166.5178 C.ar    1  UNL1        0.0021
     26 C         141.4138  143.2879  165.4121 C.ar    1  UNL1        0.0161
     27 C         140.9700  144.0619  164.2063 C.ar    1  UNL1        0.0063
     28 C         141.9417  144.3501  163.1005 C.ar    1  UNL1        0.0608
     29 C         143.3573  143.8643  163.2006 C.ar    1  UNL1        0.2610
     30 O         144.3290  144.1525  162.0948 O.2     1  UNL1       -0.2670
     31 N         143.8012  143.0903  164.4064 N.ar    1  UNL1       -0.2941
     32 C         142.8294  142.8022  165.5121 C.ar    1  UNL1        0.0631
     33 C         143.2733  142.0282  166.7179 C.ar    1  UNL1        0.0275
     34 N         143.1894  140.1921  170.2352 N.1     1  UNL1       -0.1908
     35 C         142.7455  140.9661  169.0295 C.1     1  UNL1        0.1005
@<TRIPOS>BOND
     1    34    35    3
     2    35    23    1
     3    23    24   ar
     4    24    25   ar
     5    25    26   ar
     6    26    27   ar
     7    27    28   ar
     8    28    29   ar
     9    29    30    2
    10    29    31   ar
    11    31    22    1
    12    22    21    1
    13    21     1    1
    14     1     2    1
    15     2     3    1
    16     3     4    1
    17     4     8    1
    18     8    10    1
    19    10    11    1
    20    11    12   ar
    21    12    13   ar
    22    13    14   ar
    23    14    15   ar
    24    15    16   ar
    25    14    17    1
    26    17    18    1
    27    18    19    1
    28    19    20    1
    29     4     5    1
    30     5     6    1
    31     5     7    1
    32    31    32   ar
    33    32    33   ar
    34    33    23   ar
    35    32    26   ar
    36     7     1    1
    37    16    11   ar
    38    20    13    1
    39     8     9    1
@<TRIPOS>MOLECULE
*****
 35 39 0 0 0
SMALL
GASTEIGER

@<TRIPOS>ATOM
      1 N         142.9869  144.2511  162.4686 N.3     1  UNL1       -0.2687
      2 C         142.3133  145.0866  163.5166 C.3     1  UNL1        0.0737
      3 C         140.8378  145.3441  163.4365 C.3     1  UNL1        0.0359
      4 C         140.0358  144.7662  162.3083 C.3     1  UNL1        0.0901
      5 C         140.7094  143.9308  161.2603 C.3     1  UNL1        0.1911
      6 F         139.9073  143.3528  160.1321 F       1  UNL1       -0.2343
      7 C         142.1849  143.6732  161.3404 C.3     1  UNL1        0.1092
      8 N         138.5602  145.0237  162.2281 N.3     1  UNL1       -0.2913
      9 H         138.2890  144.8819  161.2551 H       1  UNL1        0.1236
     10 C         137.6116  144.2168  163.0641 C.3     1  UNL1        0.1153
     11 C         137.8020  142.7348  163.1955 C.ar    1  UNL1        0.0782
     12 C         138.0562  142.1278  164.5435 C.ar    1  UNL1        0.0562
     13 C         138.2466  140.6458  164.6748 C.ar    1  UNL1        0.1752
     14 C         138.1830  139.7707  163.4582 C.ar    1  UNL1        0.1914
     15 C         137.9289  140.3776  162.1102 C.ar    1  UNL1        0.1384
     16 N         137.7384  141.8597  161.9789 N.ar    1  UNL1       -0.2434
     17 O         138.3735  138.2887  163.5895 O.3     1  UNL1       -0.4668
     18 C         138.6276  137.6817  164.9375 C.3     1  UNL1        0.2527
     19 C         138.6912  138.5568  166.1541 C.3     1  UNL1        0.2526
     20 O         138.5007  140.0389  166.0228 O.3     1  UNL1       -0.4683
     21 C         144.4625  143.9936  162.5488 C.3     1  UNL1        0.0970
     22 C         144.9729  142.7665  163.2442 C.3     1  UNL1        0.1263
     23 C         142.9078  138.7961  162.7741 C.ar    1  UNL1        0.0699
     24 C         142.1395  138.2098  163.9212 C.ar    1  UNL1        0.0104
     25 C         142.0596  138.9470  165.2251 C.ar    1  UNL1        0.0021
     26 C         142.7480  140.2705  165.3819 C.ar    1  UNL1        0.0161
     27 C         142.6681  141.0077  166.6858 C.ar    1  UNL1        0.0063
     28 C         143.3565  142.3311  166.8425 C.ar    1  UNL1        0.0608
     29 C         144.1248  142.9174  165.6953 C.ar    1  UNL1        0.2610
     30 O         144.8131  144.2409  165.8520 O.2     1  UNL1       -0.2670
     31 N         144.2047  142.1802  164.3914 N.ar    1  UNL1       -0.2941
     32 C         143.5162  140.8567  164.2347 C.ar    1  UNL1        0.0631
     33 C         143.5961  140.1195  162.9308 C.ar    1  UNL1        0.0275
     34 N         143.0675  137.3217  160.1662 N.1     1  UNL1       -0.1908
     35 C         142.9877  138.0589  161.4702 C.1     1  UNL1        0.1005
@<TRIPOS>BOND
     1    34    35    3
     2    35    23    1
     3    23    24   ar
     4    24    25   ar
     5    25    26   ar
     6    26    27   ar
     7    27    28   ar
     8    28    29   ar
     9    29    30    2
    10    29    31   ar
    11    31    22    1
    12    22    21    1
    13    21     1    1
    14     1     2    1
    15     2     3    1
    16     3     4    1
    17     4     8    1
    18     8    10    1
    19    10    11    1
    20    11    12   ar
    21    12    13   ar
    22    13    14   ar
    23    14    15   ar
    24    15    16   ar
    25    14    17    1
    26    17    18    1
    27    18    19    1
    28    19    20    1
    29     4     5    1
    30     5     6    1
    31     5     7    1
    32    31    32   ar
    33    32    33   ar
    34    33    23   ar
    35    32    26   ar
    36     7     1    1
    37    16    11   ar
    38    20    13    1
    39     8     9    1
@<TRIPOS>MOLECULE
*****
 35 39 0 0 0
SMALL
GASTEIGER

@<TRIPOS>ATOM
      1 N         138.0344  140.1200  162.4470 N.3     1  UNL1       -0.2687
      2 C         138.2748  140.8488  161.1582 C.3     1  UNL1        0.0737
      3 C         138.2166  142.3472  161.1217 C.3     1  UNL1        0.0359
      4 C         137.9180  143.1168  162.3741 C.3     1  UNL1        0.0901
      5 C         137.6777  142.3881  163.6629 C.3     1  UNL1        0.1911
      6 F         137.3791  143.1577  164.9154 F       1  UNL1       -0.2343
      7 C         137.7359  140.8897  163.6994 C.3     1  UNL1        0.1092
      8 N         137.8598  144.6153  162.3377 N.3     1  UNL1       -0.2913
      9 H         137.1809  144.9008  163.0434 H       1  UNL1        0.1236
     10 C         139.1019  145.4203  162.5810 C.3     1  UNL1        0.1153
     11 C         140.4020  144.7268  162.8616 C.ar    1  UNL1        0.0782
     12 C         141.3457  144.4189  161.7371 C.ar    1  UNL1        0.0562
     13 C         142.6459  143.7255  162.0177 C.ar    1  UNL1        0.1752
     14 C         143.0023  143.3399  163.4228 C.ar    1  UNL1        0.1914
     15 C         142.0586  143.6478  164.5473 C.ar    1  UNL1        0.1384
     16 N         140.7584  144.3413  164.2667 N.ar    1  UNL1       -0.2434
     17 O         144.3024  142.6465  163.7034 O.3     1  UNL1       -0.4668
     18 C         145.2462  142.3385  162.5789 C.3     1  UNL1        0.2527
     19 C         144.8898  142.7241  161.1738 C.3     1  UNL1        0.2526
     20 O         143.5896  143.4175  160.8931 O.3     1  UNL1       -0.4683
     21 C         138.0927  138.6216  162.4834 C.3     1  UNL1        0.0970
     22 C         139.0518  137.9305  163.4067 C.3     1  UNL1        0.1263
     23 C         140.5851  139.7960  167.2040 C.ar    1  UNL1        0.0699
     24 C         142.0091  140.2594  167.2901 C.ar    1  UNL1        0.0104
     25 C         142.9220  140.1011  166.1104 C.ar    1  UNL1        0.0021
     26 C         142.4109  139.4793  164.8447 C.ar    1  UNL1        0.0161
     27 C         143.3238  139.3209  163.6651 C.ar    1  UNL1        0.0063
     28 C         142.8127  138.6991  162.3994 C.ar    1  UNL1        0.0608
     29 C         141.3887  138.2356  162.3132 C.ar    1  UNL1        0.2610
     30 O         140.8776  137.6138  161.0475 O.2     1  UNL1       -0.2670
     31 N         140.4758  138.3940  163.4928 N.ar    1  UNL1       -0.2941
     32 C         140.9869  139.0158  164.7586 C.ar    1  UNL1        0.0631
     33 C         140.0740  139.1742  165.9383 C.ar    1  UNL1        0.0275
     34 N         138.7593  140.1127  169.5632 N.1     1  UNL1       -0.1908
     35 C         139.6722  139.9543  168.3836 C.1     1  UNL1        0.1005
@<TRIPOS>BOND
     1    34    35    3
     2    35    23    1
     3    23    24   ar
     4    24    25   ar
     5    25    26   ar
     6    26    27   ar
     7    27    28   ar
     8    28    29   ar
     9    29    30    2
    10    29    31   ar
    11    31    22    1
    12    22    21    1
    13    21     1    1
    14     1     2    1
    15     2     3    1
    16     3     4    1
    17     4     8    1
    18     8    10    1
    19    10    11    1
    20    11    12   ar
    21    12    13   ar
    22    13    14   ar
    23    14    15   ar
    24    15    16   ar
    25    14    17    1
    26    17    18    1
    27    18    19    1
    28    19    20    1
    29     4     5    1
    30     5     6    1
    31     5     7    1
    32    31    32   ar
    33    32    33   ar
    34    33    23   ar
    35    32    26   ar
    36     7     1    1
    37    16    11   ar
    38    20    13    1
    39     8     9    1
@<TRIPOS>MOLECULE
*****
 35 39 0 0 0
SMALL
GASTEIGER

@<TRIPOS>ATOM
      1 N         138.9030  139.5092  161.2834 N.3     1  UNL1       -0.2687
      2 C         139.8845  139.8618  160.2052 C.3     1  UNL1        0.0737
      3 C         141.2126  139.1674  160.1437 C.3     1  UNL1        0.0359
      4 C         141.5593  138.1204  161.1603 C.3     1  UNL1        0.0901
      5 C         140.5779  137.7678  162.2385 C.3     1  UNL1        0.1911
      6 F         140.9247  136.7208  163.2551 F       1  UNL1       -0.2343
      7 C         139.2498  138.4622  162.3000 C.3     1  UNL1        0.1092
      8 N         142.8875  137.4260  161.0988 N.3     1  UNL1       -0.2913
      9 H         142.9519  136.9948  160.1766 H       1  UNL1        0.1236
     10 C         144.1522  138.2068  161.3009 C.3     1  UNL1        0.1153
     11 C         144.1696  139.3761  162.2403 C.ar    1  UNL1        0.0782
     12 C         144.1065  140.7738  161.6993 C.ar    1  UNL1        0.0562
     13 C         144.1239  141.9431  162.6386 C.ar    1  UNL1        0.1752
     14 C         144.2044  141.7148  164.1190 C.ar    1  UNL1        0.1914
     15 C         144.2675  140.3172  164.6600 C.ar    1  UNL1        0.1384
     16 N         144.2501  139.1478  163.7206 N.ar    1  UNL1       -0.2434
     17 O         144.2218  142.8841  165.0583 O.3     1  UNL1       -0.4668
     18 C         144.1587  144.2817  164.5173 C.3     1  UNL1        0.2527
     19 C         144.0782  144.5100  163.0370 C.3     1  UNL1        0.2526
     20 O         144.0608  143.3407  162.0976 O.3     1  UNL1       -0.4683
     21 C         137.5748  140.2036  161.3449 C.3     1  UNL1        0.0970
     22 C         137.3368  141.2781  162.3642 C.3     1  UNL1        0.1263
     23 C         138.4722  139.7322  166.4349 C.ar    1  UNL1        0.0699
     24 C         139.6305  140.3378  167.1708 C.ar    1  UNL1        0.0104
     25 C         140.4104  141.4586  166.5499 C.ar    1  UNL1        0.0021
     26 C         140.0319  141.9738  165.1930 C.ar    1  UNL1        0.0161
     27 C         140.8118  143.0947  164.5720 C.ar    1  UNL1        0.0063
     28 C         140.4333  143.6099  163.2151 C.ar    1  UNL1        0.0608
     29 C         139.2750  143.0044  162.4791 C.ar    1  UNL1        0.2610
     30 O         138.8965  143.5197  161.1222 O.2     1  UNL1       -0.2670
     31 N         138.4951  141.8836  163.1001 N.ar    1  UNL1       -0.2941
     32 C         138.8736  141.3683  164.4570 C.ar    1  UNL1        0.0631
     33 C         138.0938  140.2475  165.0780 C.ar    1  UNL1        0.0275
     34 N         136.9125  137.4906  167.6769 N.1     1  UNL1       -0.1908
     35 C         137.6924  138.6114  167.0559 C.1     1  UNL1        0.1005
@<TRIPOS>BOND
     1    34    35    3
     2    35    23    1
     3    23    24   ar
     4    24    25   ar
     5    25    26   ar
     6    26    27   ar
     7    27    28   ar
     8    28    29   ar
     9    29    30    2
    10    29    31   ar
    11    31    22    1
    12    22    21    1
    13    21     1    1
    14     1     2    1
    15     2     3    1
    16     3     4    1
    17     4     8    1
    18     8    10    1
    19    10    11    1
    20    11    12   ar
    21    12    13   ar
    22    13    14   ar
    23    14    15   ar
    24    15    16   ar
    25    14    17    1
    26    17    18    1
    27    18    19    1
    28    19    20    1
    29     4     5    1
    30     5     6    1
    31     5     7    1
    32    31    32   ar
    33    32    33   ar
    34    33    23   ar
    35    32    26   ar
    36     7     1    1
    37    16    11   ar
    38    20    13    1
    39     8     9    1
@<TRIPOS>MOLECULE
*****
 35 39 0 0 0
SMALL
GASTEIGER

@<TRIPOS>ATOM
      1 N         141.8086  138.2813  164.0741 N.3     1  UNL1       -0.2687
      2 C         142.6085  138.8768  165.1947 C.3     1  UNL1        0.0737
      3 C         143.8791  139.6167  164.8984 C.3     1  UNL1        0.0359
      4 C         144.3499  139.7612  163.4816 C.3     1  UNL1        0.0901
      5 C         143.5501  139.1657  162.3611 C.3     1  UNL1        0.1911
      6 F         144.0209  139.3102  160.9442 F       1  UNL1       -0.2343
      7 C         142.2794  138.4258  162.6573 C.3     1  UNL1        0.1092
      8 N         145.6207  140.5012  163.1853 N.3     1  UNL1       -0.2913
      9 H         145.8210  140.3578  162.1955 H       1  UNL1        0.1236
     10 C         145.7041  141.9780  163.4344 C.3     1  UNL1        0.1153
     11 C         144.5047  142.8473  163.1988 C.ar    1  UNL1        0.0782
     12 C         144.0158  143.0880  161.8013 C.ar    1  UNL1        0.0562
     13 C         142.8163  143.9573  161.5657 C.ar    1  UNL1        0.1752
     14 C         142.1058  144.5860  162.7276 C.ar    1  UNL1        0.1914
     15 C         142.5947  144.3453  164.1251 C.ar    1  UNL1        0.1384
     16 N         143.7942  143.4759  164.3607 N.ar    1  UNL1       -0.2434
     17 O         140.9063  145.4553  162.4920 O.3     1  UNL1       -0.4668
     18 C         140.4174  145.6960  161.0945 C.3     1  UNL1        0.2527
     19 C         141.1279  145.0674  159.9326 C.3     1  UNL1        0.2526
     20 O         142.3274  144.1980  160.1682 O.3     1  UNL1       -0.4683
     21 C         140.5378  137.5414  164.3705 C.3     1  UNL1        0.0970
     22 C         139.3186  138.2932  164.8157 C.3     1  UNL1        0.1263
     23 C         139.9801  142.4247  166.4718 C.ar    1  UNL1        0.0699
     24 C         139.5160  143.6248  165.7010 C.ar    1  UNL1        0.0104
     25 C         138.8313  143.4478  164.3781 C.ar    1  UNL1        0.0021
     26 C         138.6108  142.0707  163.8261 C.ar    1  UNL1        0.0161
     27 C         137.9262  141.8937  162.5033 C.ar    1  UNL1        0.0063
     28 C         137.7056  140.5166  161.9512 C.ar    1  UNL1        0.0608
     29 C         138.1698  139.3163  162.7220 C.ar    1  UNL1        0.2610
     30 O         137.9493  137.9392  162.1700 O.2     1  UNL1       -0.2670
     31 N         138.8544  139.4933  164.0449 N.ar    1  UNL1       -0.2941
     32 C         139.0750  140.8706  164.5969 C.ar    1  UNL1        0.0631
     33 C         139.7596  141.0476  165.9197 C.ar    1  UNL1        0.0275
     34 N         141.3495  142.7787  169.1175 N.1     1  UNL1       -0.1908
     35 C         140.6648  142.6017  167.7946 C.1     1  UNL1        0.1005
@<TRIPOS>BOND
     1    34    35    3
     2    35    23    1
     3    23    24   ar
     4    24    25   ar
     5    25    26   ar
     6    26    27   ar
     7    27    28   ar
     8    28    29   ar
     9    29    30    2
    10    29    31   ar
    11    31    22    1
    12    22    21    1
    13    21     1    1
    14     1     2    1
    15     2     3    1
    16     3     4    1
    17     4     8    1
    18     8    10    1
    19    10    11    1
    20    11    12   ar
    21    12    13   ar
    22    13    14   ar
    23    14    15   ar
    24    15    16   ar
    25    14    17    1
    26    17    18    1
    27    18    19    1
    28    19    20    1
    29     4     5    1
    30     5     6    1
    31     5     7    1
    32    31    32   ar
    33    32    33   ar
    34    33    23   ar
    35    32    26   ar
    36     7     1    1
    37    16    11   ar
    38    20    13    1
    39     8     9    1
@<TRIPOS>MOLECULE
*****
 35 39 0 0 0
SMALL
GASTEIGER

@<TRIPOS>ATOM
      1 N         137.9476  142.7098  162.5820 N.3     1  UNL1       -0.2687
      2 C         138.3134  142.7052  161.1273 C.3     1  UNL1        0.0737
      3 C         138.6230  141.4107  160.4358 C.3     1  UNL1        0.0359
      4 C         138.5669  140.1206  161.1991 C.3     1  UNL1        0.0901
      5 C         138.2010  140.1252  162.6538 C.3     1  UNL1        0.1911
      6 F         138.1449  138.8351  163.4171 F       1  UNL1       -0.2343
      7 C         137.8914  141.4198  163.3452 C.3     1  UNL1        0.1092
      8 N         138.8765  138.8259  160.5077 N.3     1  UNL1       -0.2913
      9 H         138.3927  138.8485  159.6100 H       1  UNL1        0.1236
     10 C         140.3004  138.4496  160.2229 C.3     1  UNL1        0.1153
     11 C         141.3765  138.7825  161.2133 C.ar    1  UNL1        0.0782
     12 C         142.3127  139.9242  160.9482 C.ar    1  UNL1        0.0562
     13 C         143.3889  140.2571  161.9387 C.ar    1  UNL1        0.1752
     14 C         143.5290  139.4483  163.1942 C.ar    1  UNL1        0.1914
     15 C         142.5928  138.3067  163.4593 C.ar    1  UNL1        0.1384
     16 N         141.5166  137.9738  162.4688 N.ar    1  UNL1       -0.2434
     17 O         144.6052  139.7812  164.1846 O.3     1  UNL1       -0.4668
     18 C         145.5413  140.9229  163.9195 C.3     1  UNL1        0.2527
     19 C         145.4013  141.7316  162.6641 C.3     1  UNL1        0.2526
     20 O         144.3250  141.3987  161.6736 O.3     1  UNL1       -0.4683
     21 C         137.6379  144.0045  163.2734 C.3     1  UNL1        0.0970
     22 C         138.5216  144.4922  164.3829 C.3     1  UNL1        0.1263
     23 C         140.7067  141.6127  167.0631 C.ar    1  UNL1        0.0699
     24 C         142.1958  141.4692  166.9541 C.ar    1  UNL1        0.0104
     25 C         142.9566  142.2855  165.9516 C.ar    1  UNL1        0.0021
     26 C         142.2283  143.2453  165.0583 C.ar    1  UNL1        0.0161
     27 C         142.9890  144.0617  164.0558 C.ar    1  UNL1        0.0063
     28 C         142.2607  145.0215  163.1625 C.ar    1  UNL1        0.0608
     29 C         140.7715  145.1651  163.2715 C.ar    1  UNL1        0.2610
     30 O         140.0432  146.1249  162.3781 O.2     1  UNL1       -0.2670
     31 N         140.0107  144.3487  164.2739 N.ar    1  UNL1       -0.2941
     32 C         140.7392  143.3888  165.1673 C.ar    1  UNL1        0.0631
     33 C         139.9784  142.5725  166.1697 C.ar    1  UNL1        0.0275
     34 N         139.1852  139.9800  169.0679 N.1     1  UNL1       -0.1908
     35 C         139.9460  140.7963  168.0655 C.1     1  UNL1        0.1005
@<TRIPOS>BOND
     1    34    35    3
     2    35    23    1
     3    23    24   ar
     4    24    25   ar
     5    25    26   ar
     6    26    27   ar
     7    27    28   ar
     8    28    29   ar
     9    29    30    2
    10    29    31   ar
    11    31    22    1
    12    22    21    1
    13    21     1    1
    14     1     2    1
    15     2     3    1
    16     3     4    1
    17     4     8    1
    18     8    10    1
    19    10    11    1
    20    11    12   ar
    21    12    13   ar
    22    13    14   ar
    23    14    15   ar
    24    15    16   ar
    25    14    17    1
    26    17    18    1
    27    18    19    1
    28    19    20    1
    29     4     5    1
    30     5     6    1
    31     5     7    1
    32    31    32   ar
    33    32    33   ar
    34    33    23   ar
    35    32    26   ar
    36     7     1    1
    37    16    11   ar
    38    20    13    1
    39     8     9    1
