@<TRIPOS>MOLECULE
*****
 33 36 0 0 0
SMALL
GASTEIGER

@<TRIPOS>ATOM
      1 N         141.4108  139.2053  163.4762 N.am    1  UNL1       -0.2555
      2 C         142.2281  140.1322  164.3263 C.3     1  UNL1        0.1197
      3 C         141.8036  140.4290  165.7341 C.3     1  UNL1        0.1160
      4 N         140.5618  139.7989  166.2916 N.am    1  UNL1       -0.2659
      5 C         140.1373  140.0957  167.6993 C.2     1  UNL1        0.2516
      6 O         138.8955  139.4655  168.2569 O.2     1  UNL1       -0.2698
      7 C         139.7445  138.8719  165.4414 C.3     1  UNL1        0.1799
      8 C         140.1690  138.5751  164.0337 C.2     1  UNL1        0.2497
      9 O         139.3517  137.6481  163.1835 O.2     1  UNL1       -0.2727
     10 C         140.9546  141.0226  168.5495 C.ar    1  UNL1        0.0811
     11 C         140.4565  142.4069  168.8422 C.ar    1  UNL1        0.0091
     12 C         141.2739  143.3339  169.6924 C.ar    1  UNL1        0.0299
     13 C         142.5892  142.8765  170.2498 C.ar    1  UNL1        0.1424
     14 F         143.4064  143.8034  171.1000 F       1  UNL1       -0.2041
     15 C         143.0872  141.4922  169.9571 C.ar    1  UNL1        0.0594
     16 C         142.2699  140.5653  169.1070 C.ar    1  UNL1        0.1467
     17 F         142.7680  139.1810  168.8142 F       1  UNL1       -0.2039
     18 C         142.6843  138.3148  159.2530 C.ar    1  UNL1        0.1386
     19 C         143.3519  137.6168  160.4006 C.ar    1  UNL1        0.0382
     20 C         142.9274  137.9136  161.8083 C.ar    1  UNL1        0.0180
     21 C         141.8353  138.9084  162.0684 C.ar    1  UNL1        0.0541
     22 C         141.1677  139.6064  160.9207 C.ar    1  UNL1        0.0180
     23 C         141.5922  139.3096  159.5131 C.ar    1  UNL1        0.0382
     24 O         143.1088  138.0179  157.8452 O.3     1  UNL1       -0.4754
     25 C         142.0827  137.6545  156.8133 C.3     1  UNL1        0.2068
     26 C         141.8821  136.2186  156.4283 C.3     1  UNL1        0.0646
     27 C         142.9055  135.1901  156.8086 C.3     1  UNL1        0.0759
     28 C         144.7363  132.6724  157.7876 C.3     1  UNL1        0.0173
     29 C         143.5379  132.5943  156.8889 C.3     1  UNL1        0.0576
     30 C         142.9706  131.3451  156.2824 C.3     1  UNL1        0.0174
     31 C         141.7784  131.7304  155.4576 C.3     1  UNL1        0.0187
     32 C         141.6090  133.2177  155.5543 C.3     1  UNL1        0.0721
     33 N         142.6964  133.7516  156.4389 N.3     1  UNL1       -0.2738
@<TRIPOS>BOND
     1    29    28    1
     2    29    30    1
     3    30    31    1
     4    31    32    1
     5    32    33    1
     6    33    27    1
     7    27    26    1
     8    26    25    1
     9    25    24    1
    10    24    18    1
    11    18    19   ar
    12    19    20   ar
    13    20    21   ar
    14    21     1    1
    15     1     2    1
    16     2     3    1
    17     3     4    1
    18     4     5   am
    19     5     6    2
    20     5    10    1
    21    10    11   ar
    22    11    12   ar
    23    12    13   ar
    24    13    14    1
    25    13    15   ar
    26    15    16   ar
    27    16    17    1
    28     4     7    1
    29     7     8    1
    30     8     9    2
    31    21    22   ar
    32    22    23   ar
    33    33    29    1
    34    23    18   ar
    35     8     1   am
    36    16    10   ar
@<TRIPOS>MOLECULE
*****
 33 36 0 0 0
SMALL
GASTEIGER

@<TRIPOS>ATOM
      1 N         140.7496  139.3537  163.6779 N.am    1  UNL1       -0.2555
      2 C         141.6401  140.2889  164.4411 C.3     1  UNL1        0.1197
      3 C         141.3740  140.5612  165.8920 C.3     1  UNL1        0.1160
      4 N         140.2175  139.8983  166.5797 N.am    1  UNL1       -0.2659
      5 C         139.9514  140.1706  168.0306 C.2     1  UNL1        0.2516
      6 O         138.7949  139.5076  168.7183 O.2     1  UNL1       -0.2698
      7 C         139.3270  138.9630  165.8165 C.3     1  UNL1        0.1799
      8 C         139.5931  138.6908  164.3656 C.2     1  UNL1        0.2497
      9 O         138.7026  137.7555  163.6024 O.2     1  UNL1       -0.2727
     10 C         140.8418  141.1058  168.7937 C.ar    1  UNL1        0.0811
     11 C         140.3808  142.5007  169.0963 C.ar    1  UNL1        0.0091
     12 C         141.2713  143.4360  169.8595 C.ar    1  UNL1        0.0299
     13 C         142.6228  142.9762  170.3200 C.ar    1  UNL1        0.1424
     14 F         143.5132  143.9115  171.0832 F       1  UNL1       -0.2041
     15 C         143.0838  141.5813  170.0174 C.ar    1  UNL1        0.0594
     16 C         142.1934  140.6461  169.2543 C.ar    1  UNL1        0.1467
     17 F         142.6544  139.2511  168.9517 F       1  UNL1       -0.2039
     18 C         141.5477  138.5369  159.3253 C.ar    1  UNL1        0.1386
     19 C         140.4557  139.4855  159.7224 C.ar    1  UNL1        0.0382
     20 C         140.1897  139.7577  161.1732 C.ar    1  UNL1        0.0180
     21 C         141.0157  139.0814  162.2270 C.ar    1  UNL1        0.0541
     22 C         142.1076  138.1328  161.8299 C.ar    1  UNL1        0.0180
     23 C         142.3736  137.8605  160.3790 C.ar    1  UNL1        0.0382
     24 O         141.8137  138.2645  157.8743 O.3     1  UNL1       -0.4754
     25 C         142.7390  137.1527  157.4773 C.3     1  UNL1        0.2068
     26 C         143.3578  137.1438  156.1109 C.3     1  UNL1        0.0646
     27 C         144.0568  135.9139  155.6121 C.3     1  UNL1        0.0759
     28 C         141.7001  134.4934  153.8578 C.3     1  UNL1        0.0173
     29 C         142.3805  133.9067  155.0589 C.3     1  UNL1        0.0576
     30 C         142.0972  132.5640  155.6646 C.3     1  UNL1        0.0174
     31 C         143.0054  132.3870  156.8453 C.3     1  UNL1        0.0187
     32 C         143.8500  133.6204  156.9693 C.3     1  UNL1        0.0721
     33 N         143.4638  134.5596  155.8653 N.3     1  UNL1       -0.2738
@<TRIPOS>BOND
     1    29    28    1
     2    29    30    1
     3    30    31    1
     4    31    32    1
     5    32    33    1
     6    33    27    1
     7    27    26    1
     8    26    25    1
     9    25    24    1
    10    24    18    1
    11    18    19   ar
    12    19    20   ar
    13    20    21   ar
    14    21     1    1
    15     1     2    1
    16     2     3    1
    17     3     4    1
    18     4     5   am
    19     5     6    2
    20     5    10    1
    21    10    11   ar
    22    11    12   ar
    23    12    13   ar
    24    13    14    1
    25    13    15   ar
    26    15    16   ar
    27    16    17    1
    28     4     7    1
    29     7     8    1
    30     8     9    2
    31    21    22   ar
    32    22    23   ar
    33    33    29    1
    34    23    18   ar
    35     8     1   am
    36    16    10   ar
@<TRIPOS>MOLECULE
*****
 33 36 0 0 0
SMALL
GASTEIGER

@<TRIPOS>ATOM
      1 N         139.7657  141.1260  163.2784 N.am    1  UNL1       -0.2555
      2 C         140.6988  141.9413  164.1238 C.3     1  UNL1        0.1197
      3 C         140.7249  141.7490  165.6112 C.3     1  UNL1        0.1160
      4 N         139.8178  140.7415  166.2532 N.am    1  UNL1       -0.2659
      5 C         139.8438  140.5491  167.7406 C.2     1  UNL1        0.2516
      6 O         138.9368  139.5416  168.3826 O.2     1  UNL1       -0.2698
      7 C         138.8847  139.9262  165.4077 C.3     1  UNL1        0.1799
      8 C         138.8587  140.1185  163.9204 C.2     1  UNL1        0.2497
      9 O         137.9255  139.3033  163.0749 O.2     1  UNL1       -0.2727
     10 C         140.7769  141.3644  168.5860 C.ar    1  UNL1        0.0811
     11 C         140.3330  142.6909  169.1276 C.ar    1  UNL1        0.0091
     12 C         141.2661  143.5061  169.9730 C.ar    1  UNL1        0.0299
     13 C         142.6432  142.9948  170.2768 C.ar    1  UNL1        0.1424
     14 F         143.5762  143.8100  171.1222 F       1  UNL1       -0.2041
     15 C         143.0871  141.6683  169.7352 C.ar    1  UNL1        0.0594
     16 C         142.1540  140.8531  168.8898 C.ar    1  UNL1        0.1467
     17 F         142.5980  139.5266  168.3482 F       1  UNL1       -0.2039
     18 C         139.6876  141.7028  158.8162 C.ar    1  UNL1        0.1386
     19 C         140.6446  140.7239  159.4293 C.ar    1  UNL1        0.0382
     20 C         140.6706  140.5317  160.9166 C.ar    1  UNL1        0.0180
     21 C         139.7397  141.3183  161.7910 C.ar    1  UNL1        0.0541
     22 C         138.7827  142.2973  161.1779 C.ar    1  UNL1        0.0180
     23 C         138.7567  142.4895  159.6906 C.ar    1  UNL1        0.0382
     24 O         139.6615  141.8951  157.3288 O.3     1  UNL1       -0.4754
     25 C         140.5336  142.9360  156.6917 C.3     1  UNL1        0.2068
     26 C         141.9744  143.0548  157.0921 C.3     1  UNL1        0.0646
     27 C         142.4457  144.2617  157.8479 C.3     1  UNL1        0.0759
     28 C         143.7523  142.6955  160.3953 C.3     1  UNL1        0.0173
     29 C         142.6616  143.7234  160.4572 C.3     1  UNL1        0.0576
     30 C         141.9799  144.2117  161.7009 C.3     1  UNL1        0.0174
     31 C         140.9580  145.2335  161.2986 C.3     1  UNL1        0.0187
     32 C         141.0081  145.3765  159.8063 C.3     1  UNL1        0.0721
     33 N         142.0610  144.4432  159.2863 N.3     1  UNL1       -0.2738
@<TRIPOS>BOND
     1    29    28    1
     2    29    30    1
     3    30    31    1
     4    31    32    1
     5    32    33    1
     6    33    27    1
     7    27    26    1
     8    26    25    1
     9    25    24    1
    10    24    18    1
    11    18    19   ar
    12    19    20   ar
    13    20    21   ar
    14    21     1    1
    15     1     2    1
    16     2     3    1
    17     3     4    1
    18     4     5   am
    19     5     6    2
    20     5    10    1
    21    10    11   ar
    22    11    12   ar
    23    12    13   ar
    24    13    14    1
    25    13    15   ar
    26    15    16   ar
    27    16    17    1
    28     4     7    1
    29     7     8    1
    30     8     9    2
    31    21    22   ar
    32    22    23   ar
    33    33    29    1
    34    23    18   ar
    35     8     1   am
    36    16    10   ar
@<TRIPOS>MOLECULE
*****
 33 36 0 0 0
SMALL
GASTEIGER

@<TRIPOS>ATOM
      1 N         142.5885  140.9681  163.1658 N.am    1  UNL1       -0.2555
      2 C         141.7649  141.8189  164.0866 C.3     1  UNL1        0.1197
      3 C         141.7105  141.5027  165.5519 C.3     1  UNL1        0.1160
      4 N         142.4797  140.3357  166.0964 N.am    1  UNL1       -0.2659
      5 C         142.4254  140.0195  167.5617 C.2     1  UNL1        0.2516
      6 O         143.1946  138.8525  168.1061 O.2     1  UNL1       -0.2698
      7 C         143.3033  139.4849  165.1755 C.3     1  UNL1        0.1799
      8 C         143.3577  139.8011  163.7103 C.2     1  UNL1        0.2497
      9 O         144.1813  138.9503  162.7894 O.2     1  UNL1       -0.2727
     10 C         141.6018  140.8703  168.4824 C.ar    1  UNL1        0.0811
     11 C         140.2498  140.3994  168.9300 C.ar    1  UNL1        0.0091
     12 C         139.4262  141.2503  169.8508 C.ar    1  UNL1        0.0299
     13 C         139.9547  142.5719  170.3240 C.ar    1  UNL1        0.1424
     14 F         139.1311  143.4227  171.2448 F       1  UNL1       -0.2041
     15 C         141.3067  143.0428  169.8764 C.ar    1  UNL1        0.0594
     16 C         142.1303  142.1920  168.9557 C.ar    1  UNL1        0.1467
     17 F         143.4823  142.6628  168.5081 F       1  UNL1       -0.2039
     18 C         142.7517  141.9166  158.7700 C.ar    1  UNL1        0.1386
     19 C         143.6084  142.6818  159.7346 C.ar    1  UNL1        0.0382
     20 C         143.5540  142.3656  161.1999 C.ar    1  UNL1        0.0180
     21 C         142.6429  141.2842  161.7005 C.ar    1  UNL1        0.0541
     22 C         141.7862  140.5191  160.7358 C.ar    1  UNL1        0.0180
     23 C         141.8406  140.8353  159.2706 C.ar    1  UNL1        0.0382
     24 O         142.8061  142.2328  157.3046 O.3     1  UNL1       -0.4754
     25 C         141.7357  143.0773  156.6793 C.3     1  UNL1        0.2068
     26 C         141.2633  144.3222  157.3702 C.3     1  UNL1        0.0646
     27 C         139.8547  144.4094  157.8783 C.3     1  UNL1        0.0759
     28 C         140.9453  145.1448  160.8648 C.3     1  UNL1        0.0173
     29 C         139.9739  144.0536  160.5248 C.3     1  UNL1        0.0576
     30 C         139.3333  143.1088  161.4979 C.3     1  UNL1        0.0174
     31 C         138.4360  142.1868  160.7266 C.3     1  UNL1        0.0187
     32 C         138.5221  142.5618  159.2768 C.3     1  UNL1        0.0721
     33 N         139.4726  143.7156  159.1521 N.3     1  UNL1       -0.2738
@<TRIPOS>BOND
     1    29    28    1
     2    29    30    1
     3    30    31    1
     4    31    32    1
     5    32    33    1
     6    33    27    1
     7    27    26    1
     8    26    25    1
     9    25    24    1
    10    24    18    1
    11    18    19   ar
    12    19    20   ar
    13    20    21   ar
    14    21     1    1
    15     1     2    1
    16     2     3    1
    17     3     4    1
    18     4     5   am
    19     5     6    2
    20     5    10    1
    21    10    11   ar
    22    11    12   ar
    23    12    13   ar
    24    13    14    1
    25    13    15   ar
    26    15    16   ar
    27    16    17    1
    28     4     7    1
    29     7     8    1
    30     8     9    2
    31    21    22   ar
    32    22    23   ar
    33    33    29    1
    34    23    18   ar
    35     8     1   am
    36    16    10   ar
@<TRIPOS>MOLECULE
*****
 33 36 0 0 0
SMALL
GASTEIGER

@<TRIPOS>ATOM
      1 N         142.1160  140.5178  163.0900 N.am    1  UNL1       -0.2555
      2 C         141.3134  141.3928  164.0065 C.3     1  UNL1        0.1197
      3 C         141.3888  141.1924  165.4912 C.3     1  UNL1        0.1160
      4 N         142.2666  140.1169  166.0593 N.am    1  UNL1       -0.2659
      5 C         142.3420  139.9165  167.5439 C.2     1  UNL1        0.2516
      6 O         143.2199  138.8410  168.1119 O.2     1  UNL1       -0.2698
      7 C         143.0692  139.2418  165.1426 C.3     1  UNL1        0.1799
      8 C         142.9938  139.4423  163.6580 C.2     1  UNL1        0.2497
      9 O         143.7964  138.5672  162.7413 O.2     1  UNL1       -0.2727
     10 C         141.5395  140.7915  168.4604 C.ar    1  UNL1        0.0811
     11 C         140.2217  140.3114  168.9925 C.ar    1  UNL1        0.0091
     12 C         139.4192  141.1865  169.9091 C.ar    1  UNL1        0.0299
     13 C         139.9344  142.5417  170.2937 C.ar    1  UNL1        0.1424
     14 F         139.1319  143.4168  171.2103 F       1  UNL1       -0.2041
     15 C         141.2522  143.0219  169.7617 C.ar    1  UNL1        0.0594
     16 C         142.0547  142.1468  168.8451 C.ar    1  UNL1        0.1467
     17 F         143.3724  142.6269  168.3130 F       1  UNL1       -0.2039
     18 C         141.8901  141.1191  158.6361 C.ar    1  UNL1        0.1386
     19 C         142.7145  142.0478  159.4773 C.ar    1  UNL1        0.0382
     20 C         142.7898  141.8473  160.9619 C.ar    1  UNL1        0.0180
     21 C         142.0406  140.7182  161.6053 C.ar    1  UNL1        0.0541
     22 C         141.2162  139.7896  160.7640 C.ar    1  UNL1        0.0180
     23 C         141.1409  139.9900  159.2794 C.ar    1  UNL1        0.0382
     24 O         141.8147  141.3195  157.1514 O.3     1  UNL1       -0.4754
     25 C         140.5226  141.7394  156.5158 C.3     1  UNL1        0.2068
     26 C         139.9444  143.0911  156.8141 C.3     1  UNL1        0.0646
     27 C         139.0111  143.2681  157.9748 C.3     1  UNL1        0.0759
     28 C         138.3999  142.0645  160.9459 C.3     1  UNL1        0.0173
     29 C         139.2428  143.2664  160.6377 C.3     1  UNL1        0.0576
     30 C         139.9529  144.1260  161.6411 C.3     1  UNL1        0.0174
     31 C         140.6726  145.2106  160.8957 C.3     1  UNL1        0.0187
     32 C         140.4074  145.0212  159.4315 C.3     1  UNL1        0.0721
     33 N         139.5238  143.8196  159.2721 N.3     1  UNL1       -0.2738
@<TRIPOS>BOND
     1    29    28    1
     2    29    30    1
     3    30    31    1
     4    31    32    1
     5    32    33    1
     6    33    27    1
     7    27    26    1
     8    26    25    1
     9    25    24    1
    10    24    18    1
    11    18    19   ar
    12    19    20   ar
    13    20    21   ar
    14    21     1    1
    15     1     2    1
    16     2     3    1
    17     3     4    1
    18     4     5   am
    19     5     6    2
    20     5    10    1
    21    10    11   ar
    22    11    12   ar
    23    12    13   ar
    24    13    14    1
    25    13    15   ar
    26    15    16   ar
    27    16    17    1
    28     4     7    1
    29     7     8    1
    30     8     9    2
    31    21    22   ar
    32    22    23   ar
    33    33    29    1
    34    23    18   ar
    35     8     1   am
    36    16    10   ar
@<TRIPOS>MOLECULE
*****
 33 36 0 0 0
SMALL
GASTEIGER

@<TRIPOS>ATOM
      1 N         140.8963  139.6344  158.6206 N.am    1  UNL1       -0.2555
      2 C         140.3012  138.4018  158.0071 C.3     1  UNL1        0.1197
      3 C         141.1398  137.5217  157.1282 C.3     1  UNL1        0.1160
      4 N         142.5734  137.8743  156.8630 N.am    1  UNL1       -0.2659
      5 C         143.4120  136.9943  155.9842 C.2     1  UNL1        0.2516
      6 O         144.8456  137.3469  155.7189 O.2     1  UNL1       -0.2698
      7 C         143.1685  139.1070  157.4765 C.3     1  UNL1        0.1799
      8 C         142.3299  139.9870  158.3553 C.2     1  UNL1        0.2497
      9 O         142.9250  141.2198  158.9689 O.2     1  UNL1       -0.2727
     10 C         142.8169  135.7616  155.3707 C.ar    1  UNL1        0.0811
     11 C         142.3754  135.7756  153.9372 C.ar    1  UNL1        0.0091
     12 C         141.7803  134.5428  153.3237 C.ar    1  UNL1        0.0299
     13 C         141.6268  133.2963  154.1437 C.ar    1  UNL1        0.1424
     14 F         141.0317  132.0636  153.5301 F       1  UNL1       -0.2041
     15 C         142.0683  133.2823  155.5771 C.ar    1  UNL1        0.0594
     16 C         142.6634  134.5149  156.1906 C.ar    1  UNL1        0.1467
     17 F         143.1050  134.5010  157.6241 F       1  UNL1       -0.2039
     18 C         138.3807  142.2747  161.2569 C.ar    1  UNL1        0.1386
     19 C         138.5921  142.6362  159.8166 C.ar    1  UNL1        0.0382
     20 C         139.4306  141.7561  158.9378 C.ar    1  UNL1        0.0180
     21 C         140.0577  140.5145  159.4994 C.ar    1  UNL1        0.0541
     22 C         139.8463  140.1531  160.9398 C.ar    1  UNL1        0.0180
     23 C         139.0078  141.0332  161.8185 C.ar    1  UNL1        0.0382
     24 O         137.5421  143.1548  162.1358 O.3     1  UNL1       -0.4754
     25 C         137.7277  143.1240  163.6239 C.3     1  UNL1        0.2068
     26 C         138.2547  144.3326  164.3392 C.3     1  UNL1        0.0646
     27 C         139.7340  144.5605  164.4372 C.3     1  UNL1        0.0759
     28 C         139.7727  146.2390  161.6389 C.3     1  UNL1        0.0173
     29 C         140.6331  145.0555  161.9691 C.3     1  UNL1        0.0576
     30 C         141.6623  144.4357  161.0710 C.3     1  UNL1        0.0174
     31 C         142.2806  143.2811  161.8022 C.3     1  UNL1        0.0187
     32 C         141.6335  143.1873  163.1522 C.3     1  UNL1        0.0721
     33 N         140.6153  144.2840  163.2553 N.3     1  UNL1       -0.2738
@<TRIPOS>BOND
     1    29    28    1
     2    29    30    1
     3    30    31    1
     4    31    32    1
     5    32    33    1
     6    33    27    1
     7    27    26    1
     8    26    25    1
     9    25    24    1
    10    24    18    1
    11    18    19   ar
    12    19    20   ar
    13    20    21   ar
    14    21     1    1
    15     1     2    1
    16     2     3    1
    17     3     4    1
    18     4     5   am
    19     5     6    2
    20     5    10    1
    21    10    11   ar
    22    11    12   ar
    23    12    13   ar
    24    13    14    1
    25    13    15   ar
    26    15    16   ar
    27    16    17    1
    28     4     7    1
    29     7     8    1
    30     8     9    2
    31    21    22   ar
    32    22    23   ar
    33    33    29    1
    34    23    18   ar
    35     8     1   am
    36    16    10   ar
@<TRIPOS>MOLECULE
*****
 33 36 0 0 0
SMALL
GASTEIGER

@<TRIPOS>ATOM
      1 N         141.2434  139.7174  163.3619 N.am    1  UNL1       -0.2555
      2 C         142.0645  140.6278  164.2260 C.3     1  UNL1        0.1197
      3 C         141.7204  140.7975  165.6762 C.3     1  UNL1        0.1160
      4 N         140.5552  140.0566  166.2622 N.am    1  UNL1       -0.2659
      5 C         140.2111  140.2262  167.7123 C.2     1  UNL1        0.2516
      6 O         139.0459  139.4854  168.2982 O.2     1  UNL1       -0.2698
      7 C         139.7340  139.1461  165.3980 C.3     1  UNL1        0.1799
      8 C         140.0781  138.9765  163.9479 C.2     1  UNL1        0.2497
      9 O         139.2570  138.0660  163.0837 O.2     1  UNL1       -0.2727
     10 C         141.0323  141.1367  168.5764 C.ar    1  UNL1        0.0811
     11 C         140.5015  142.4858  168.9613 C.ar    1  UNL1        0.0091
     12 C         141.3227  143.3962  169.8255 C.ar    1  UNL1        0.0299
     13 C         142.6747  142.9576  170.3047 C.ar    1  UNL1        0.1424
     14 F         143.4958  143.8681  171.1688 F       1  UNL1       -0.2041
     15 C         143.2055  141.6085  169.9197 C.ar    1  UNL1        0.0594
     16 C         142.3844  140.6981  169.0556 C.ar    1  UNL1        0.1467
     17 F         142.9152  139.3490  168.6707 F       1  UNL1       -0.2039
     18 C         142.2756  139.2084  159.0116 C.ar    1  UNL1        0.1386
     19 C         143.0126  138.4214  160.0543 C.ar    1  UNL1        0.0382
     20 C         142.6685  138.5911  161.5044 C.ar    1  UNL1        0.0180
     21 C         141.5874  139.5478  161.9118 C.ar    1  UNL1        0.0541
     22 C         140.8504  140.3348  160.8690 C.ar    1  UNL1        0.0180
     23 C         141.1945  140.1651  159.4190 C.ar    1  UNL1        0.0382
     24 O         142.6196  139.0388  157.5614 O.3     1  UNL1       -0.4754
     25 C         143.4145  140.0939  156.8508 C.3     1  UNL1        0.2068
     26 C         144.5870  140.7355  157.5317 C.3     1  UNL1        0.0646
     27 C         144.6351  142.2255  157.6971 C.3     1  UNL1        0.0759
     28 C         144.4165  141.9593  160.9421 C.3     1  UNL1        0.0173
     29 C         143.5312  142.7933  160.0643 C.3     1  UNL1        0.0576
     30 C         142.3900  143.6514  160.5240 C.3     1  UNL1        0.0174
     31 C         141.7851  144.3041  159.3164 C.3     1  UNL1        0.0187
     32 C         142.5525  143.8494  158.1105 C.3     1  UNL1        0.0721
     33 N         143.6317  142.9157  158.5727 N.3     1  UNL1       -0.2738
@<TRIPOS>BOND
     1    29    28    1
     2    29    30    1
     3    30    31    1
     4    31    32    1
     5    32    33    1
     6    33    27    1
     7    27    26    1
     8    26    25    1
     9    25    24    1
    10    24    18    1
    11    18    19   ar
    12    19    20   ar
    13    20    21   ar
    14    21     1    1
    15     1     2    1
    16     2     3    1
    17     3     4    1
    18     4     5   am
    19     5     6    2
    20     5    10    1
    21    10    11   ar
    22    11    12   ar
    23    12    13   ar
    24    13    14    1
    25    13    15   ar
    26    15    16   ar
    27    16    17    1
    28     4     7    1
    29     7     8    1
    30     8     9    2
    31    21    22   ar
    32    22    23   ar
    33    33    29    1
    34    23    18   ar
    35     8     1   am
    36    16    10   ar
@<TRIPOS>MOLECULE
*****
 33 36 0 0 0
SMALL
GASTEIGER

@<TRIPOS>ATOM
      1 N         141.4517  139.9301  158.4376 N.am    1  UNL1       -0.2555
      2 C         140.9767  138.5131  158.3092 C.3     1  UNL1        0.1197
      3 C         141.7559  137.5328  157.4834 C.3     1  UNL1        0.1160
      4 N         143.0101  137.9695  156.7861 N.am    1  UNL1       -0.2659
      5 C         143.7893  136.9892  155.9604 C.2     1  UNL1        0.2516
      6 O         145.0435  137.4259  155.2630 O.2     1  UNL1       -0.2698
      7 C         143.4851  139.3865  156.9146 C.3     1  UNL1        0.1799
      8 C         142.7059  140.3668  157.7403 C.2     1  UNL1        0.2497
      9 O         143.1809  141.7838  157.8688 O.2     1  UNL1       -0.2727
     10 C         143.3142  135.5722  155.8319 C.ar    1  UNL1        0.0811
     11 C         143.4848  134.6174  156.9761 C.ar    1  UNL1        0.0091
     12 C         143.0097  133.2004  156.8477 C.ar    1  UNL1        0.0299
     13 C         142.3641  132.7383  155.5750 C.ar    1  UNL1        0.1424
     14 F         141.8891  131.3213  155.4466 F       1  UNL1       -0.2041
     15 C         142.1936  133.6931  154.4308 C.ar    1  UNL1        0.0594
     16 C         142.6687  135.1100  154.5592 C.ar    1  UNL1        0.1467
     17 F         142.4981  136.0649  153.4150 F       1  UNL1       -0.2039
     18 C         139.1141  142.8710  160.9148 C.ar    1  UNL1        0.1386
     19 C         138.4552  142.1682  159.7650 C.ar    1  UNL1        0.0382
     20 C         139.2344  141.1880  158.9393 C.ar    1  UNL1        0.0180
     21 C         140.6725  140.9104  159.2634 C.ar    1  UNL1        0.0541
     22 C         141.3313  141.6132  160.4131 C.ar    1  UNL1        0.0180
     23 C         140.5521  142.5935  161.2388 C.ar    1  UNL1        0.0382
     24 O         138.3349  143.8514  161.7406 O.3     1  UNL1       -0.4754
     25 C         137.8403  143.4596  163.1014 C.3     1  UNL1        0.2068
     26 C         137.2692  142.0909  163.3265 C.3     1  UNL1        0.0646
     27 C         138.1310  141.0028  163.8950 C.3     1  UNL1        0.0759
     28 C         141.1709  139.8160  163.8969 C.3     1  UNL1        0.0173
     29 C         140.0513  139.3713  163.0032 C.3     1  UNL1        0.0576
     30 C         140.1324  138.3029  161.9534 C.3     1  UNL1        0.0174
     31 C         138.7852  138.1881  161.3038 C.3     1  UNL1        0.0187
     32 C         137.8716  139.1856  161.9520 C.3     1  UNL1        0.0721
     33 N         138.6540  139.9168  163.0023 N.3     1  UNL1       -0.2738
@<TRIPOS>BOND
     1    29    28    1
     2    29    30    1
     3    30    31    1
     4    31    32    1
     5    32    33    1
     6    33    27    1
     7    27    26    1
     8    26    25    1
     9    25    24    1
    10    24    18    1
    11    18    19   ar
    12    19    20   ar
    13    20    21   ar
    14    21     1    1
    15     1     2    1
    16     2     3    1
    17     3     4    1
    18     4     5   am
    19     5     6    2
    20     5    10    1
    21    10    11   ar
    22    11    12   ar
    23    12    13   ar
    24    13    14    1
    25    13    15   ar
    26    15    16   ar
    27    16    17    1
    28     4     7    1
    29     7     8    1
    30     8     9    2
    31    21    22   ar
    32    22    23   ar
    33    33    29    1
    34    23    18   ar
    35     8     1   am
    36    16    10   ar
@<TRIPOS>MOLECULE
*****
 33 36 0 0 0
SMALL
GASTEIGER

@<TRIPOS>ATOM
      1 N         141.1743  139.6116  163.0684 N.am    1  UNL1       -0.2555
      2 C         140.4134  140.5216  163.9864 C.3     1  UNL1        0.1197
      3 C         140.7451  140.5600  165.4488 C.3     1  UNL1        0.1160
      4 N         141.8377  139.6884  165.9932 N.am    1  UNL1       -0.2659
      5 C         142.1694  139.7268  167.4555 C.2     1  UNL1        0.2516
      6 O         143.2621  138.8551  167.9999 O.2     1  UNL1       -0.2698
      7 C         142.5987  138.7783  165.0751 C.3     1  UNL1        0.1799
      8 C         142.2670  138.7399  163.6128 C.2     1  UNL1        0.2497
      9 O         143.0280  137.8299  162.6947 O.2     1  UNL1       -0.2727
     10 C         141.4084  140.6368  168.3735 C.ar    1  UNL1        0.0811
     11 C         140.1670  140.1454  169.0570 C.ar    1  UNL1        0.0091
     12 C         139.4060  141.0555  169.9751 C.ar    1  UNL1        0.0299
     13 C         139.8865  142.4569  170.2095 C.ar    1  UNL1        0.1424
     14 F         139.1255  143.3670  171.1274 F       1  UNL1       -0.2041
     15 C         141.1280  142.9484  169.5259 C.ar    1  UNL1        0.0594
     16 C         141.8889  142.0383  168.6079 C.ar    1  UNL1        0.1467
     17 F         143.1304  142.5298  167.9244 F       1  UNL1       -0.2039
     18 C         140.1793  139.4963  158.6813 C.ar    1  UNL1        0.1386
     19 C         139.5921  138.4757  159.6106 C.ar    1  UNL1        0.0382
     20 C         139.9238  138.5142  161.0730 C.ar    1  UNL1        0.0180
     21 C         140.8427  139.5732  161.6060 C.ar    1  UNL1        0.0541
     22 C         141.4299  140.5937  160.6767 C.ar    1  UNL1        0.0180
     23 C         141.0982  140.5553  159.2144 C.ar    1  UNL1        0.0382
     24 O         139.8476  139.4578  157.2189 O.3     1  UNL1       -0.4754
     25 C         139.6308  138.1414  156.5334 C.3     1  UNL1        0.2068
     26 C         140.7217  137.1118  156.5245 C.3     1  UNL1        0.0646
     27 C         140.9052  136.2239  155.3296 C.3     1  UNL1        0.0759
     28 C         144.1564  136.2686  155.6072 C.3     1  UNL1        0.0173
     29 C         143.2935  135.0432  155.5458 C.3     1  UNL1        0.0576
     30 C         143.7736  133.6232  155.6011 C.3     1  UNL1        0.0174
     31 C         142.5759  132.7249  155.5077 C.3     1  UNL1        0.0187
     32 C         141.3556  133.5899  155.3946 C.3     1  UNL1        0.0721
     33 N         141.7991  135.0226  155.4181 N.3     1  UNL1       -0.2738
@<TRIPOS>BOND
     1    29    28    1
     2    29    30    1
     3    30    31    1
     4    31    32    1
     5    32    33    1
     6    33    27    1
     7    27    26    1
     8    26    25    1
     9    25    24    1
    10    24    18    1
    11    18    19   ar
    12    19    20   ar
    13    20    21   ar
    14    21     1    1
    15     1     2    1
    16     2     3    1
    17     3     4    1
    18     4     5   am
    19     5     6    2
    20     5    10    1
    21    10    11   ar
    22    11    12   ar
    23    12    13   ar
    24    13    14    1
    25    13    15   ar
    26    15    16   ar
    27    16    17    1
    28     4     7    1
    29     7     8    1
    30     8     9    2
    31    21    22   ar
    32    22    23   ar
    33    33    29    1
    34    23    18   ar
    35     8     1   am
    36    16    10   ar
