@<TRIPOS>MOLECULE
*****
 27 30 0 0 0
SMALL
GASTEIGER

@<TRIPOS>ATOM
      1 N         140.7688  146.1500  156.4411 N.3     1  UNL1       -0.2711
      2 C         139.9595  146.2438  157.7005 C.3     1  UNL1        0.0939
      3 C         140.4009  145.5101  158.9321 C.3     1  UNL1        0.1123
      4 N         141.6517  144.6825  158.9042 N.am    1  UNL1       -0.2612
      5 C         142.0931  143.9488  160.1358 C.2     1  UNL1        0.3072
      6 O         143.3438  143.1213  160.1080 O.2     1  UNL1       -0.2523
      7 N         141.2838  144.0427  161.3952 N.am    1  UNL1       -0.2640
      8 C         140.0176  144.8271  161.5732 C.3     1  UNL1        0.0950
      9 C         139.5498  144.6378  162.9858 C.3     1  UNL1        0.0233
     10 C         140.5268  143.7364  163.6808 C.3     1  UNL1        0.0227
     11 C         141.5830  142.8301  164.2403 C.3     1  UNL1        0.0191
     12 C         141.5025  142.3762  165.6677 C.3     1  UNL1        0.0721
     13 N         140.3658  142.8286  166.5356 N.3     1  UNL1       -0.2738
     14 C         139.3096  143.7349  165.9761 C.3     1  UNL1        0.0721
     15 C         139.3901  144.1887  164.5487 C.3     1  UNL1        0.0191
     16 C         141.5984  143.3686  162.6978 C.3     1  UNL1        0.0950
     17 C         142.4610  144.5887  157.6448 C.3     1  UNL1        0.1123
     18 C         142.0196  145.3224  156.4132 C.3     1  UNL1        0.0939
     19 C         140.2853  142.3747  167.9631 C.3     1  UNL1        0.0625
     20 C         140.4212  143.3713  169.0758 C.3     1  UNL1        0.0481
     21 C         140.3407  142.9174  170.5032 C.3     1  UNL1        0.1435
     22 O         140.1243  141.4668  170.8179 O.3     1  UNL1       -0.3537
     23 C         139.9884  140.4701  169.7050 C.3     1  UNL1        0.1435
     24 C         140.0689  140.9241  168.2777 C.3     1  UNL1        0.0481
     25 C         140.9788  146.5937  153.8898 C.3     1  UNL1        0.0173
     26 C         140.3274  146.8837  155.2095 C.3     1  UNL1        0.0577
     27 C         139.2345  147.9075  155.2976 C.3     1  UNL1        0.0173
@<TRIPOS>BOND
     1    25    26    1
     2    26    27    1
     3    26     1    1
     4     1     2    1
     5     2     3    1
     6     3     4    1
     7     4     5   am
     8     5     6    2
     9     5     7   am
    10     7     8    1
    11     8     9    1
    12     9    10    1
    13    10    11    1
    14    11    12    1
    15    12    13    1
    16    13    19    1
    17    19    20    1
    18    20    21    1
    19    21    22    1
    20    22    23    1
    21    23    24    1
    22    13    14    1
    23    14    15    1
    24    10    16    1
    25     4    17    1
    26    17    18    1
    27    18     1    1
    28    16     7    1
    29    15    10    1
    30    24    19    1
@<TRIPOS>MOLECULE
*****
 27 30 0 0 0
SMALL
GASTEIGER

@<TRIPOS>ATOM
      1 N         141.9216  144.8255  156.4832 N.3     1  UNL1       -0.2711
      2 C         142.3760  143.8821  157.5572 C.3     1  UNL1        0.0939
      3 C         141.8225  144.0041  158.9460 C.3     1  UNL1        0.1123
      4 N         140.8145  145.0695  159.2608 N.am    1  UNL1       -0.2612
      5 C         140.2610  145.1914  160.6495 C.2     1  UNL1        0.3072
      6 O         139.2530  146.2567  160.9643 O.2     1  UNL1       -0.2523
      7 N         140.7154  144.2480  161.7235 N.am    1  UNL1       -0.2640
      8 C         141.7118  143.1389  161.5591 C.3     1  UNL1        0.0950
      9 C         141.8654  142.4535  162.8845 C.3     1  UNL1        0.0233
     10 C         140.9639  143.1390  163.8681 C.3     1  UNL1        0.0227
     11 C         140.0198  143.9193  164.7340 C.3     1  UNL1        0.0191
     12 C         139.8575  143.5590  166.1810 C.3     1  UNL1        0.0721
     13 N         140.6393  142.4184  166.7621 N.3     1  UNL1       -0.2738
     14 C         141.5834  141.6380  165.8962 C.3     1  UNL1        0.0721
     15 C         141.7457  141.9984  164.4493 C.3     1  UNL1        0.0191
     16 C         140.2531  144.2481  163.1506 C.3     1  UNL1        0.0950
     17 C         140.3601  146.0128  158.1868 C.3     1  UNL1        0.1123
     18 C         140.9136  145.8909  156.7980 C.3     1  UNL1        0.0939
     19 C         140.4770  142.0581  168.2092 C.3     1  UNL1        0.0625
     20 C         140.3497  143.1389  169.2414 C.3     1  UNL1        0.0481
     21 C         140.1874  142.7786  170.6885 C.3     1  UNL1        0.1435
     22 O         140.1524  141.3375  171.1032 O.3     1  UNL1       -0.3537
     23 C         140.2798  140.2566  170.0708 C.3     1  UNL1        0.1435
     24 C         140.4421  140.6170  168.6239 C.3     1  UNL1        0.0481
     25 C         143.5632  143.7124  154.8050 C.3     1  UNL1        0.0173
     26 C         142.4752  144.7036  155.0944 C.3     1  UNL1        0.0577
     27 C         141.9406  145.5729  153.9950 C.3     1  UNL1        0.0173
@<TRIPOS>BOND
     1    25    26    1
     2    26    27    1
     3    26     1    1
     4     1     2    1
     5     2     3    1
     6     3     4    1
     7     4     5   am
     8     5     6    2
     9     5     7   am
    10     7     8    1
    11     8     9    1
    12     9    10    1
    13    10    11    1
    14    11    12    1
    15    12    13    1
    16    13    19    1
    17    19    20    1
    18    20    21    1
    19    21    22    1
    20    22    23    1
    21    23    24    1
    22    13    14    1
    23    14    15    1
    24    10    16    1
    25     4    17    1
    26    17    18    1
    27    18     1    1
    28    16     7    1
    29    15    10    1
    30    24    19    1
@<TRIPOS>MOLECULE
*****
 27 30 0 0 0
SMALL
GASTEIGER

@<TRIPOS>ATOM
      1 N         141.8479  137.1454  156.9602 N.3     1  UNL1       -0.2711
      2 C         142.6984  137.4017  158.1689 C.3     1  UNL1        0.0939
      3 C         142.1328  138.1508  159.3389 C.3     1  UNL1        0.1123
      4 N         140.7165  138.6436  159.3002 N.am    1  UNL1       -0.2612
      5 C         140.1509  139.3927  160.4702 C.2     1  UNL1        0.3072
      6 O         138.7347  139.8855  160.4315 O.2     1  UNL1       -0.2523
      7 N         141.0014  139.6489  161.6788 N.am    1  UNL1       -0.2640
      8 C         142.4271  139.2195  161.8608 C.3     1  UNL1        0.0950
      9 C         142.8825  139.6848  163.2122 C.3     1  UNL1        0.0233
     10 C         141.7382  140.4019  163.8654 C.3     1  UNL1        0.0227
     11 C         140.5113  141.0881  164.3887 C.3     1  UNL1        0.0191
     12 C         140.5269  141.7169  165.7504 C.3     1  UNL1        0.0721
     13 N         141.7694  141.6594  166.5889 N.3     1  UNL1       -0.2738
     14 C         142.9962  140.9731  166.0656 C.3     1  UNL1        0.0721
     15 C         142.9806  140.3444  164.7039 C.3     1  UNL1        0.0191
     16 C         140.5757  140.3797  162.9178 C.3     1  UNL1        0.0950
     17 C         139.8659  138.3873  158.0916 C.3     1  UNL1        0.1123
     18 C         140.4316  137.6382  156.9215 C.3     1  UNL1        0.0939
     19 C         141.7849  142.2882  167.9507 C.3     1  UNL1        0.0625
     20 C         140.5631  142.9881  168.4676 C.3     1  UNL1        0.0481
     21 C         140.5786  143.6169  169.8294 C.3     1  UNL1        0.1435
     22 O         141.8160  143.5458  170.6742 O.3     1  UNL1       -0.3537
     23 C         143.0379  142.8458  170.1573 C.3     1  UNL1        0.1435
     24 C         143.0223  142.2170  168.7955 C.3     1  UNL1        0.0481
     25 C         141.4974  135.6678  154.8521 C.3     1  UNL1        0.0173
     26 C         142.4135  136.3964  155.7902 C.3     1  UNL1        0.0577
     27 C         143.8954  136.3758  155.5582 C.3     1  UNL1        0.0173
@<TRIPOS>BOND
     1    25    26    1
     2    26    27    1
     3    26     1    1
     4     1     2    1
     5     2     3    1
     6     3     4    1
     7     4     5   am
     8     5     6    2
     9     5     7   am
    10     7     8    1
    11     8     9    1
    12     9    10    1
    13    10    11    1
    14    11    12    1
    15    12    13    1
    16    13    19    1
    17    19    20    1
    18    20    21    1
    19    21    22    1
    20    22    23    1
    21    23    24    1
    22    13    14    1
    23    14    15    1
    24    10    16    1
    25     4    17    1
    26    17    18    1
    27    18     1    1
    28    16     7    1
    29    15    10    1
    30    24    19    1
@<TRIPOS>MOLECULE
*****
 27 30 0 0 0
SMALL
GASTEIGER

@<TRIPOS>ATOM
      1 N         143.8491  139.5115  157.2318 N.3     1  UNL1       -0.2711
      2 C         144.0860  140.4690  158.3618 C.3     1  UNL1        0.0939
      3 C         143.4646  140.2148  159.7031 C.3     1  UNL1        0.1123
      4 N         142.6062  139.0029  159.9145 N.am    1  UNL1       -0.2612
      5 C         141.9848  138.7487  161.2557 C.2     1  UNL1        0.3072
      6 O         141.1264  137.5369  161.4671 O.2     1  UNL1       -0.2523
      7 N         142.2217  139.7062  162.3857 N.am    1  UNL1       -0.2640
      8 C         143.0522  140.9539  162.3247 C.3     1  UNL1        0.0950
      9 C         143.0136  141.6030  163.6764 C.3     1  UNL1        0.0233
     10 C         142.1591  140.7566  164.5729 C.3     1  UNL1        0.0227
     11 C         141.2847  139.8147  165.3463 C.3     1  UNL1        0.0191
     12 C         140.9742  140.0919  166.7874 C.3     1  UNL1        0.0721
     13 N         141.5382  141.3109  167.4551 N.3     1  UNL1       -0.2738
     14 C         142.4127  142.2528  166.6817 C.3     1  UNL1        0.0721
     15 C         142.7231  141.9756  165.2406 C.3     1  UNL1        0.0191
     16 C         141.6698  139.5843  163.7752 C.3     1  UNL1        0.0950
     17 C         142.3692  138.0453  158.7845 C.3     1  UNL1        0.1123
     18 C         142.9906  138.2996  157.4431 C.3     1  UNL1        0.0939
     19 C         141.2277  141.5881  168.8962 C.3     1  UNL1        0.0625
     20 C         141.9068  140.7978  169.9752 C.3     1  UNL1        0.0481
     21 C         141.5963  141.0749  171.4163 C.3     1  UNL1        0.1435
     22 O         140.6066  142.1424  171.7784 O.3     1  UNL1       -0.3537
     23 C         139.9275  142.9327  170.6994 C.3     1  UNL1        0.1435
     24 C         140.2381  142.6556  169.2583 C.3     1  UNL1        0.0481
     25 C         144.8318  138.6134  155.0007 C.3     1  UNL1        0.0173
     26 C         144.4705  139.7657  155.8904 C.3     1  UNL1        0.0577
     27 C         144.7307  141.1723  155.4389 C.3     1  UNL1        0.0173
@<TRIPOS>BOND
     1    25    26    1
     2    26    27    1
     3    26     1    1
     4     1     2    1
     5     2     3    1
     6     3     4    1
     7     4     5   am
     8     5     6    2
     9     5     7   am
    10     7     8    1
    11     8     9    1
    12     9    10    1
    13    10    11    1
    14    11    12    1
    15    12    13    1
    16    13    19    1
    17    19    20    1
    18    20    21    1
    19    21    22    1
    20    22    23    1
    21    23    24    1
    22    13    14    1
    23    14    15    1
    24    10    16    1
    25     4    17    1
    26    17    18    1
    27    18     1    1
    28    16     7    1
    29    15    10    1
    30    24    19    1
@<TRIPOS>MOLECULE
*****
 27 30 0 0 0
SMALL
GASTEIGER

@<TRIPOS>ATOM
      1 N         143.3022  138.3944  157.0593 N.3     1  UNL1       -0.2711
      2 C         142.7785  137.9099  158.3788 C.3     1  UNL1        0.0939
      3 C         142.9157  138.7684  159.6011 C.3     1  UNL1        0.1123
      4 N         143.5766  140.1116  159.5039 N.am    1  UNL1       -0.2612
      5 C         143.7137  140.9700  160.7262 C.2     1  UNL1        0.3072
      6 O         144.3746  142.3131  160.6291 O.2     1  UNL1       -0.2523
      7 N         143.1901  140.4855  162.0457 N.am    1  UNL1       -0.2640
      8 C         142.5096  139.1723  162.2957 C.3     1  UNL1        0.0950
      9 C         142.1539  139.1043  163.7514 C.3     1  UNL1        0.0233
     10 C         142.6147  140.3755  164.4010 C.3     1  UNL1        0.0227
     11 C         143.1276  141.6902  164.9092 C.3     1  UNL1        0.0191
     12 C         142.9747  142.0453  166.3585 C.3     1  UNL1        0.0721
     13 N         142.3090  141.0857  167.2996 N.3     1  UNL1       -0.2738
     14 C         141.7961  139.7709  166.7915 C.3     1  UNL1        0.0721
     15 C         141.9489  139.4158  165.3422 C.3     1  UNL1        0.0191
     16 C         143.2550  141.2291  163.3469 C.3     1  UNL1        0.0950
     17 C         144.1002  140.5961  158.1845 C.3     1  UNL1        0.1123
     18 C         143.9630  139.7376  156.9621 C.3     1  UNL1        0.0939
     19 C         142.1562  141.4408  168.7490 C.3     1  UNL1        0.0625
     20 C         143.0216  142.5052  169.3556 C.3     1  UNL1        0.0481
     21 C         142.8688  142.8604  170.8050 C.3     1  UNL1        0.1435
     22 O         141.8505  142.1511  171.6476 O.3     1  UNL1       -0.3537
     23 C         140.9850  141.0867  171.0409 C.3     1  UNL1        0.1435
     24 C         141.1379  140.7316  169.5916 C.3     1  UNL1        0.0481
     25 C         144.0997  136.3826  155.6217 C.3     1  UNL1        0.0173
     26 C         143.1650  137.5359  155.8370 C.3     1  UNL1        0.0577
     27 C         142.0930  137.8306  154.8299 C.3     1  UNL1        0.0173
@<TRIPOS>BOND
     1    25    26    1
     2    26    27    1
     3    26     1    1
     4     1     2    1
     5     2     3    1
     6     3     4    1
     7     4     5   am
     8     5     6    2
     9     5     7   am
    10     7     8    1
    11     8     9    1
    12     9    10    1
    13    10    11    1
    14    11    12    1
    15    12    13    1
    16    13    19    1
    17    19    20    1
    18    20    21    1
    19    21    22    1
    20    22    23    1
    21    23    24    1
    22    13    14    1
    23    14    15    1
    24    10    16    1
    25     4    17    1
    26    17    18    1
    27    18     1    1
    28    16     7    1
    29    15    10    1
    30    24    19    1
@<TRIPOS>MOLECULE
*****
 27 30 0 0 0
SMALL
GASTEIGER

@<TRIPOS>ATOM
      1 N         139.5533  140.3349  167.5452 N.3     1  UNL1       -0.2711
      2 C         140.1525  141.4972  166.8104 C.3     1  UNL1        0.0939
      3 C         139.8926  141.6718  165.3435 C.3     1  UNL1        0.1123
      4 N         139.0333  140.6840  164.6113 N.am    1  UNL1       -0.2612
      5 C         138.7733  140.8586  163.1444 C.2     1  UNL1        0.3072
      6 O         137.9141  139.8708  162.4122 O.2     1  UNL1       -0.2523
      7 N         139.3726  142.0209  162.4096 N.am    1  UNL1       -0.2640
      8 C         140.2476  143.0839  163.0049 C.3     1  UNL1        0.0950
      9 C         140.6179  144.0442  161.9137 C.3     1  UNL1        0.0233
     10 C         139.9717  143.5748  160.6440 C.3     1  UNL1        0.0227
     11 C         139.2664  142.9864  159.4582 C.3     1  UNL1        0.0191
     12 C         139.3714  143.6507  158.1175 C.3     1  UNL1        0.0721
     13 N         140.1817  144.9035  157.9626 N.3     1  UNL1       -0.2738
     14 C         140.8869  145.4919  159.1485 C.3     1  UNL1        0.0721
     15 C         140.7819  144.8275  160.4892 C.3     1  UNL1        0.0191
     16 C         139.2020  142.3242  160.9505 C.3     1  UNL1        0.0950
     17 C         138.4340  139.5217  165.3461 C.3     1  UNL1        0.1123
     18 C         138.6940  139.3471  166.8130 C.3     1  UNL1        0.0939
     19 C         140.2866  145.5679  156.6218 C.3     1  UNL1        0.0625
     20 C         139.4924  146.8075  156.3348 C.3     1  UNL1        0.0481
     21 C         139.5974  147.4719  154.9940 C.3     1  UNL1        0.1435
     22 O         140.4966  146.8966  153.9403 O.3     1  UNL1       -0.3537
     23 C         141.2909  145.6569  154.2273 C.3     1  UNL1        0.1435
     24 C         141.1859  144.9926  155.5681 C.3     1  UNL1        0.0481
     25 C         138.7005  140.3536  169.9993 C.3     1  UNL1        0.0173
     26 C         139.8133  140.1603  169.0122 C.3     1  UNL1        0.0577
     27 C         141.1861  139.7925  169.4920 C.3     1  UNL1        0.0173
@<TRIPOS>BOND
     1    25    26    1
     2    26    27    1
     3    26     1    1
     4     1     2    1
     5     2     3    1
     6     3     4    1
     7     4     5   am
     8     5     6    2
     9     5     7   am
    10     7     8    1
    11     8     9    1
    12     9    10    1
    13    10    11    1
    14    11    12    1
    15    12    13    1
    16    13    19    1
    17    19    20    1
    18    20    21    1
    19    21    22    1
    20    22    23    1
    21    23    24    1
    22    13    14    1
    23    14    15    1
    24    10    16    1
    25     4    17    1
    26    17    18    1
    27    18     1    1
    28    16     7    1
    29    15    10    1
    30    24    19    1
@<TRIPOS>MOLECULE
*****
 27 30 0 0 0
SMALL
GASTEIGER

@<TRIPOS>ATOM
      1 N         140.7728  137.8130  157.2770 N.3     1  UNL1       -0.2711
      2 C         139.9199  138.4121  158.3557 C.3     1  UNL1        0.0939
      3 C         140.4876  138.6286  159.7272 C.3     1  UNL1        0.1123
      4 N         141.9082  138.2459  160.0199 N.am    1  UNL1       -0.2612
      5 C         142.4758  138.4624  161.3913 C.2     1  UNL1        0.3072
      6 O         143.8964  138.0797  161.6840 O.2     1  UNL1       -0.2523
      7 N         141.6230  139.0615  162.4700 N.am    1  UNL1       -0.2640
      8 C         140.1930  139.4913  162.3268 C.3     1  UNL1        0.0950
      9 C         139.7366  140.0314  163.6496 C.3     1  UNL1        0.0233
     10 C         140.8845  139.9355  164.6105 C.3     1  UNL1        0.0227
     11 C         142.1153  139.7774  165.4533 C.3     1  UNL1        0.0191
     12 C         142.1000  140.2057  166.8907 C.3     1  UNL1        0.0721
     13 N         140.8540  140.7921  167.4854 N.3     1  UNL1       -0.2738
     14 C         139.6233  140.9501  166.6426 C.3     1  UNL1        0.0721
     15 C         139.6385  140.5219  165.2052 C.3     1  UNL1        0.0191
     16 C         142.0504  139.3360  163.8815 C.3     1  UNL1        0.0950
     17 C         142.7610  137.6468  158.9411 C.3     1  UNL1        0.1123
     18 C         142.1934  137.4303  157.5697 C.3     1  UNL1        0.0939
     19 C         140.8388  141.2204  168.9229 C.3     1  UNL1        0.0625
     20 C         139.9974  142.3867  169.3491 C.3     1  UNL1        0.0481
     21 C         139.9821  142.8150  170.7866 C.3     1  UNL1        0.1435
     22 O         140.8083  142.0770  171.7979 O.3     1  UNL1       -0.3537
     23 C         141.6498  140.9106  171.3716 C.3     1  UNL1        0.1435
     24 C         141.6650  140.4823  169.9342 C.3     1  UNL1        0.0481
     25 C         140.5828  136.3747  155.1217 C.3     1  UNL1        0.0173
     26 C         140.2051  137.5965  155.9055 C.3     1  UNL1        0.0577
     27 C         139.2596  138.6020  155.3178 C.3     1  UNL1        0.0173
@<TRIPOS>BOND
     1    25    26    1
     2    26    27    1
     3    26     1    1
     4     1     2    1
     5     2     3    1
     6     3     4    1
     7     4     5   am
     8     5     6    2
     9     5     7   am
    10     7     8    1
    11     8     9    1
    12     9    10    1
    13    10    11    1
    14    11    12    1
    15    12    13    1
    16    13    19    1
    17    19    20    1
    18    20    21    1
    19    21    22    1
    20    22    23    1
    21    23    24    1
    22    13    14    1
    23    14    15    1
    24    10    16    1
    25     4    17    1
    26    17    18    1
    27    18     1    1
    28    16     7    1
    29    15    10    1
    30    24    19    1
@<TRIPOS>MOLECULE
*****
 27 30 0 0 0
SMALL
GASTEIGER

@<TRIPOS>ATOM
      1 N         138.5835  143.0693  156.7700 N.3     1  UNL1       -0.2711
      2 C         138.2204  142.1851  157.9259 C.3     1  UNL1        0.0939
      3 C         138.7733  142.4700  159.2908 C.3     1  UNL1        0.1123
      4 N         139.6895  143.6393  159.4998 N.am    1  UNL1       -0.2612
      5 C         140.2425  143.9242  160.8647 C.2     1  UNL1        0.3072
      6 O         141.1586  145.0933  161.0737 O.2     1  UNL1       -0.2523
      7 N         139.8793  143.0399  162.0206 N.am    1  UNL1       -0.2640
      8 C         138.9796  141.8409  161.9649 C.3     1  UNL1        0.0950
      9 C         138.8963  141.2594  163.3451 C.3     1  UNL1        0.0233
     10 C         139.7445  142.0990  164.2539 C.3     1  UNL1        0.0227
     11 C         140.6260  143.0263  165.0367 C.3     1  UNL1        0.0191
     12 C         140.8307  142.8044  166.5060 C.3     1  UNL1        0.0721
     13 N         140.1540  141.6551  167.1924 N.3     1  UNL1       -0.2738
     14 C         139.2724  140.7278  166.4095 C.3     1  UNL1        0.0721
     15 C         139.0677  140.9497  164.9403 C.3     1  UNL1        0.0191
     16 C         140.3520  143.1994  163.4353 C.3     1  UNL1        0.0950
     17 C         140.0527  144.5235  158.3439 C.3     1  UNL1        0.1123
     18 C         139.4997  144.2386  156.9789 C.3     1  UNL1        0.0939
     19 C         140.3587  141.4332  168.6618 C.3     1  UNL1        0.0625
     20 C         141.1024  142.4490  169.4772 C.3     1  UNL1        0.0481
     21 C         141.3072  142.2271  170.9465 C.3     1  UNL1        0.1435
     22 O         140.7682  140.9894  171.6004 O.3     1  UNL1       -0.3537
     23 C         140.0244  139.9736  170.7849 C.3     1  UNL1        0.1435
     24 C         139.8197  140.1955  169.3156 C.3     1  UNL1        0.0481
     25 C         138.7847  141.8958  154.4608 C.3     1  UNL1        0.0173
     26 C         138.0306  142.7844  155.4050 C.3     1  UNL1        0.0577
     27 C         136.7234  143.3882  154.9843 C.3     1  UNL1        0.0173
@<TRIPOS>BOND
     1    25    26    1
     2    26    27    1
     3    26     1    1
     4     1     2    1
     5     2     3    1
     6     3     4    1
     7     4     5   am
     8     5     6    2
     9     5     7   am
    10     7     8    1
    11     8     9    1
    12     9    10    1
    13    10    11    1
    14    11    12    1
    15    12    13    1
    16    13    19    1
    17    19    20    1
    18    20    21    1
    19    21    22    1
    20    22    23    1
    21    23    24    1
    22    13    14    1
    23    14    15    1
    24    10    16    1
    25     4    17    1
    26    17    18    1
    27    18     1    1
    28    16     7    1
    29    15    10    1
    30    24    19    1
@<TRIPOS>MOLECULE
*****
 27 30 0 0 0
SMALL
GASTEIGER

@<TRIPOS>ATOM
      1 N         141.0177  137.2727  155.6634 N.3     1  UNL1       -0.2711
      2 C         140.0279  137.5644  156.7520 C.3     1  UNL1        0.0939
      3 C         140.5061  138.0293  158.0956 C.3     1  UNL1        0.1123
      4 N         141.9742  138.2024  158.3505 N.am    1  UNL1       -0.2612
      5 C         142.4523  138.6673  159.6941 C.2     1  UNL1        0.3072
      6 O         143.9203  138.8404  159.9490 O.2     1  UNL1       -0.2523
      7 N         141.4625  138.9591  160.7827 N.am    1  UNL1       -0.2640
      8 C         139.9716  138.8326  160.6759 C.3     1  UNL1        0.0950
      9 C         139.3775  139.2239  161.9965 C.3     1  UNL1        0.0233
     10 C         140.5011  139.5923  162.9195 C.3     1  UNL1        0.0227
     11 C         141.7221  139.9281  163.7235 C.3     1  UNL1        0.0191
     12 C         141.5817  140.3806  165.1467 C.3     1  UNL1        0.0721
     13 N         140.2204  140.4974  165.7658 N.3     1  UNL1       -0.2738
     14 C         138.9995  140.1615  164.9618 C.3     1  UNL1        0.0721
     15 C         139.1399  139.7090  163.5386 C.3     1  UNL1        0.0191
     16 C         141.7897  139.4286  162.1693 C.3     1  UNL1        0.0950
     17 C         142.9640  137.9107  157.2619 C.3     1  UNL1        0.1123
     18 C         142.4858  137.4458  155.9183 C.3     1  UNL1        0.0939
     19 C         140.0801  140.9499  167.1891 C.3     1  UNL1        0.0625
     20 C         139.4363  140.0504  168.2021 C.3     1  UNL1        0.0481
     21 C         139.2960  140.5030  169.6254 C.3     1  UNL1        0.1435
     22 O         139.7996  141.8551  170.0355 O.3     1  UNL1       -0.3537
     23 C         140.4434  142.7547  169.0223 C.3     1  UNL1        0.1435
     24 C         140.5837  142.3021  167.5992 C.3     1  UNL1        0.0481
     25 C         139.1244  137.0680  153.8961 C.3     1  UNL1        0.0173
     26 C         140.5395  136.8078  154.3198 C.3     1  UNL1        0.0577
     27 C         141.4766  136.0826  153.3999 C.3     1  UNL1        0.0173
@<TRIPOS>BOND
     1    25    26    1
     2    26    27    1
     3    26     1    1
     4     1     2    1
     5     2     3    1
     6     3     4    1
     7     4     5   am
     8     5     6    2
     9     5     7   am
    10     7     8    1
    11     8     9    1
    12     9    10    1
    13    10    11    1
    14    11    12    1
    15    12    13    1
    16    13    19    1
    17    19    20    1
    18    20    21    1
    19    21    22    1
    20    22    23    1
    21    23    24    1
    22    13    14    1
    23    14    15    1
    24    10    16    1
    25     4    17    1
    26    17    18    1
    27    18     1    1
    28    16     7    1
    29    15    10    1
    30    24    19    1
