@<TRIPOS>MOLECULE
*****
 43 48 0 0 0
SMALL
GASTEIGER

@<TRIPOS>ATOM
      1 C         137.7992  142.8919  162.9222 C.3     1  UNL1        0.0932
      2 C         138.0597  142.7186  161.4552 C.3     1  UNL1        0.0286
      3 C         138.1264  141.3422  160.8628 C.3     1  UNL1        0.0193
      4 C         137.9326  140.1390  161.7374 C.3     1  UNL1        0.0700
      5 C         137.6721  140.3123  163.2044 C.3     1  UNL1        0.0193
      6 C         137.6054  141.6889  163.7968 C.3     1  UNL1        0.0286
      7 C         137.8872  140.8732  162.1074 C.3     1  UNL1        0.1562
      8 O         137.8269  142.1178  162.6431 O.3     1  UNL1       -0.3572
      9 N         137.9993  138.7626  161.1450 N.3     1  UNL1       -0.2926
     10 H         137.4724  138.7919  160.2721 H       1  UNL1        0.1236
     11 C         139.3295  138.1464  160.8275 C.3     1  UNL1        0.1152
     12 C         140.4783  138.3110  161.7777 C.ar    1  UNL1        0.0765
     13 C         140.5554  137.4663  163.0149 C.ar    1  UNL1        0.0193
     14 C         141.7042  137.6309  163.9651 C.ar    1  UNL1        0.0411
     15 C         142.7761  138.6404  163.6782 C.ar    1  UNL1        0.1708
     16 C         142.6990  139.4851  162.4412 C.ar    1  UNL1        0.1682
     17 N         141.5501  139.3205  161.4909 N.ar    1  UNL1       -0.2304
     18 N         143.7708  140.4945  162.1543 N.am    1  UNL1       -0.2639
     19 C         144.9197  140.6592  163.1045 C.2     1  UNL1        0.2718
     20 O         145.9915  141.6686  162.8177 O.2     1  UNL1       -0.2707
     21 C         144.9968  139.8144  164.3417 C.3     1  UNL1        0.2898
     22 O         143.9250  138.8050  164.6286 O.3     1  UNL1       -0.4628
     23 H         143.7203  141.0490  161.3424 H       1  UNL1        0.1565
     24 C         137.7325  144.2684  163.5146 C.3     1  UNL1        0.0320
     25 C         138.8397  144.7582  164.4002 C.3     1  UNL1        0.0327
     26 C         141.1601  142.3803  167.4352 C.ar    1  UNL1        0.2249
     27 C         142.5786  141.9833  167.1518 C.ar    1  UNL1        0.0593
     28 C         143.2236  142.3791  165.8566 C.ar    1  UNL1        0.0254
     29 C         142.4501  143.1717  164.8450 C.ar    1  UNL1        0.0990
     30 N         143.0952  143.5674  163.5499 N.ar    1  UNL1       -0.2400
     31 C         142.3217  144.3600  162.5382 C.ar    1  UNL1        0.1281
     32 C         140.9032  144.7570  162.8217 C.ar    1  UNL1        0.1566
     33 F         140.1298  145.5496  161.8100 F       1  UNL1       -0.2028
     34 C         140.2582  144.3613  164.1168 C.ar    1  UNL1        0.0261
     35 C         141.0317  143.5686  165.1285 C.ar    1  UNL1        0.1002
     36 N         140.3867  143.1729  166.4236 N.ar    1  UNL1       -0.2104
     37 O         140.5151  141.9845  168.7304 O.3     1  UNL1       -0.4602
     38 C         139.6095  140.7900  168.7830 C.3     1  UNL1        0.2075
     39 C         139.7788  139.6762  167.7926 C.3     1  UNL1        0.0533
     40 C         138.7655  139.4800  166.7041 C.3     1  UNL1        0.0455
     41 O         138.2983  137.1895  165.5702 O.co2   1  UNL1       -0.5492
     42 C         137.9821  138.2029  166.6300 C.2     1  UNL1        0.0505
     43 O         136.8826  137.9393  167.6156 O.co2   1  UNL1       -0.5492
@<TRIPOS>UNITY_ATOM_ATTR
41 1
charge -1
@<TRIPOS>BOND
     1    41    42   ar
     2    42    43   ar
     3    42    40    1
     4    40    39    1
     5    39    38    1
     6    38    37    1
     7    37    26    1
     8    26    27   ar
     9    27    28   ar
    10    28    29   ar
    11    29    30   ar
    12    30    31   ar
    13    31    32   ar
    14    32    33    1
    15    32    34   ar
    16    34    25    1
    17    25    24    1
    18    24     1    1
    19     1     2    1
    20     2     3    1
    21     3     4    1
    22     4     9    1
    23     9    11    1
    24    11    12    1
    25    12    13   ar
    26    13    14   ar
    27    14    15   ar
    28    15    16   ar
    29    16    17   ar
    30    16    18    1
    31    18    19   am
    32    19    20    2
    33    19    21    1
    34    21    22    1
    35     4     5    1
    36     5     6    1
    37     4     7    1
    38     7     8    1
    39    34    35   ar
    40    35    36   ar
    41    36    26   ar
    42    35    29   ar
    43     6     1    1
    44     8     1    1
    45    17    12   ar
    46    22    15    1
    47     9    10    1
    48    18    23    1
@<TRIPOS>MOLECULE
*****
 43 48 0 0 0
SMALL
GASTEIGER

@<TRIPOS>ATOM
      1 C         141.9312  138.1121  163.8835 C.3     1  UNL1        0.0932
      2 C         142.2702  138.4970  162.4739 C.3     1  UNL1        0.0286
      3 C         143.4960  139.3149  162.1940 C.3     1  UNL1        0.0193
      4 C         144.3829  139.7478  163.3236 C.3     1  UNL1        0.0700
      5 C         144.0439  139.3629  164.7332 C.3     1  UNL1        0.0193
      6 C         142.8180  138.5450  165.0131 C.3     1  UNL1        0.0286
      7 C         143.7219  139.3007  163.5263 C.3     1  UNL1        0.1562
      8 O         142.6135  138.5611  163.7795 O.3     1  UNL1       -0.3572
      9 N         145.6087  140.5657  163.0437 N.3     1  UNL1       -0.2926
     10 H         145.7397  140.5632  162.0322 H       1  UNL1        0.1236
     11 C         145.6716  141.9980  163.4849 C.3     1  UNL1        0.1152
     12 C         144.4764  142.8882  163.3151 C.ar    1  UNL1        0.0765
     13 C         143.8387  143.5245  164.5146 C.ar    1  UNL1        0.0193
     14 C         142.6435  144.4148  164.3448 C.ar    1  UNL1        0.0411
     15 C         142.0859  144.6688  162.9756 C.ar    1  UNL1        0.1708
     16 C         142.7236  144.0326  161.7762 C.ar    1  UNL1        0.1682
     17 N         143.9188  143.1423  161.9460 N.ar    1  UNL1       -0.2304
     18 N         142.1660  144.2866  160.4071 N.am    1  UNL1       -0.2639
     19 C         140.9708  145.1769  160.2373 C.2     1  UNL1        0.2718
     20 O         140.4132  145.4309  158.8682 O.2     1  UNL1       -0.2707
     21 C         140.3331  145.8131  161.4367 C.3     1  UNL1        0.2898
     22 O         140.8906  145.5591  162.8059 O.3     1  UNL1       -0.4628
     23 H         142.5845  143.8690  159.6199 H       1  UNL1        0.1565
     24 C         140.7053  137.2942  164.1634 C.3     1  UNL1        0.0320
     25 C         139.4431  137.9658  164.6172 C.3     1  UNL1        0.0327
     26 C         140.0234  142.1683  166.1179 C.ar    1  UNL1        0.2249
     27 C         139.4685  143.3253  165.3412 C.ar    1  UNL1        0.0593
     28 C         138.7201  143.0816  164.0643 C.ar    1  UNL1        0.0254
     29 C         138.5267  141.6808  163.5641 C.ar    1  UNL1        0.0990
     30 N         137.7784  141.4370  162.2871 N.ar    1  UNL1       -0.2400
     31 C         137.5849  140.0362  161.7869 C.ar    1  UNL1        0.1281
     32 C         138.1399  138.8791  162.5636 C.ar    1  UNL1        0.1566
     33 F         137.9464  137.4783  162.0633 F       1  UNL1       -0.2028
     34 C         138.8882  139.1228  163.8405 C.ar    1  UNL1        0.0261
     35 C         139.0816  140.5237  164.3407 C.ar    1  UNL1        0.1002
     36 N         139.8300  140.7675  165.6177 N.ar    1  UNL1       -0.2104
     37 O         140.7717  142.4121  167.3949 O.3     1  UNL1       -0.4602
     38 C         142.1149  141.7797  167.6094 C.3     1  UNL1        0.2075
     39 C         143.0354  142.3145  168.6662 C.3     1  UNL1        0.0533
     40 C         142.7398  142.0637  170.1152 C.3     1  UNL1        0.0455
     41 O         140.8245  142.0389  171.8705 O.co2   1  UNL1       -0.5492
     42 C         141.5678  142.7342  170.7686 C.2     1  UNL1        0.0505
     43 O         141.1391  144.0998  170.3200 O.co2   1  UNL1       -0.5492
@<TRIPOS>UNITY_ATOM_ATTR
41 1
charge -1
@<TRIPOS>BOND
     1    41    42   ar
     2    42    43   ar
     3    42    40    1
     4    40    39    1
     5    39    38    1
     6    38    37    1
     7    37    26    1
     8    26    27   ar
     9    27    28   ar
    10    28    29   ar
    11    29    30   ar
    12    30    31   ar
    13    31    32   ar
    14    32    33    1
    15    32    34   ar
    16    34    25    1
    17    25    24    1
    18    24     1    1
    19     1     2    1
    20     2     3    1
    21     3     4    1
    22     4     9    1
    23     9    11    1
    24    11    12    1
    25    12    13   ar
    26    13    14   ar
    27    14    15   ar
    28    15    16   ar
    29    16    17   ar
    30    16    18    1
    31    18    19   am
    32    19    20    2
    33    19    21    1
    34    21    22    1
    35     4     5    1
    36     5     6    1
    37     4     7    1
    38     7     8    1
    39    34    35   ar
    40    35    36   ar
    41    36    26   ar
    42    35    29   ar
    43     6     1    1
    44     8     1    1
    45    17    12   ar
    46    22    15    1
    47     9    10    1
    48    18    23    1
@<TRIPOS>MOLECULE
*****
 43 48 0 0 0
SMALL
GASTEIGER

@<TRIPOS>ATOM
      1 C         137.9250  142.7401  163.7231 C.3     1  UNL1        0.0932
      2 C         138.0574  141.5312  164.6011 C.3     1  UNL1        0.0286
      3 C         138.0399  140.1590  163.9956 C.3     1  UNL1        0.0193
      4 C         137.8901  139.9957  162.5120 C.3     1  UNL1        0.0700
      5 C         137.7577  141.2047  161.6340 C.3     1  UNL1        0.0193
      6 C         137.7752  142.5769  162.2396 C.3     1  UNL1        0.0286
      7 C         137.8942  140.7678  162.7979 C.3     1  UNL1        0.1562
      8 O         137.9100  142.0086  163.3454 O.3     1  UNL1       -0.3572
      9 N         137.8726  138.6235  161.9064 N.3     1  UNL1       -0.2926
     10 H         137.1364  138.6225  161.2005 H       1  UNL1        0.1236
     11 C         139.1051  138.0788  161.2474 C.3     1  UNL1        0.1152
     12 C         140.4564  138.3615  161.8338 C.ar    1  UNL1        0.0765
     13 C         141.5445  138.9293  160.9713 C.ar    1  UNL1        0.0193
     14 C         142.8958  139.2120  161.5577 C.ar    1  UNL1        0.0411
     15 C         143.1592  138.9270  163.0066 C.ar    1  UNL1        0.1708
     16 C         142.0713  138.3592  163.8691 C.ar    1  UNL1        0.1682
     17 N         140.7198  138.0764  163.2827 N.ar    1  UNL1       -0.2304
     18 N         142.3347  138.0741  165.3180 N.am    1  UNL1       -0.2639
     19 C         143.6860  138.3568  165.9044 C.2     1  UNL1        0.2718
     20 O         143.9494  138.0718  167.3534 O.2     1  UNL1       -0.2707
     21 C         144.7740  138.9246  165.0419 C.3     1  UNL1        0.2898
     22 O         144.5106  139.2097  163.5930 O.3     1  UNL1       -0.4628
     23 H         141.6206  137.7014  165.8841 H       1  UNL1        0.1565
     24 C         137.9425  144.1123  164.3286 C.3     1  UNL1        0.0320
     25 C         139.2501  144.7788  164.6387 C.3     1  UNL1        0.0327
     26 C         142.9678  142.5355  165.8207 C.ar    1  UNL1        0.2249
     27 C         144.1134  142.4231  164.8590 C.ar    1  UNL1        0.0593
     28 C         144.0199  143.0584  163.5034 C.ar    1  UNL1        0.0254
     29 C         142.7808  143.8061  163.1094 C.ar    1  UNL1        0.0990
     30 N         142.6872  144.4414  161.7538 N.ar    1  UNL1       -0.2400
     31 C         141.4481  145.1891  161.3598 C.ar    1  UNL1        0.1281
     32 C         140.3023  145.3016  162.3215 C.ar    1  UNL1        0.1566
     33 F         139.0631  146.0493  161.9275 F       1  UNL1       -0.2028
     34 C         140.3958  144.6663  163.6771 C.ar    1  UNL1        0.0261
     35 C         141.6351  143.9185  164.0711 C.ar    1  UNL1        0.1002
     36 N         141.7286  143.2833  165.4267 N.ar    1  UNL1       -0.2104
     37 O         143.0613  141.9002  167.1763 O.3     1  UNL1       -0.4602
     38 C         142.0667  142.2557  168.2413 C.3     1  UNL1        0.2075
     39 C         141.0581  141.2420  168.6941 C.3     1  UNL1        0.0533
     40 C         139.9088  141.6631  169.5612 C.3     1  UNL1        0.0455
     41 O         140.5069  142.2071  172.0303 O.co2   1  UNL1       -0.5492
     42 C         140.1230  142.6669  170.6551 C.2     1  UNL1        0.0505
     43 O         139.9533  144.1304  170.3737 O.co2   1  UNL1       -0.5492
@<TRIPOS>UNITY_ATOM_ATTR
41 1
charge -1
@<TRIPOS>BOND
     1    41    42   ar
     2    42    43   ar
     3    42    40    1
     4    40    39    1
     5    39    38    1
     6    38    37    1
     7    37    26    1
     8    26    27   ar
     9    27    28   ar
    10    28    29   ar
    11    29    30   ar
    12    30    31   ar
    13    31    32   ar
    14    32    33    1
    15    32    34   ar
    16    34    25    1
    17    25    24    1
    18    24     1    1
    19     1     2    1
    20     2     3    1
    21     3     4    1
    22     4     9    1
    23     9    11    1
    24    11    12    1
    25    12    13   ar
    26    13    14   ar
    27    14    15   ar
    28    15    16   ar
    29    16    17   ar
    30    16    18    1
    31    18    19   am
    32    19    20    2
    33    19    21    1
    34    21    22    1
    35     4     5    1
    36     5     6    1
    37     4     7    1
    38     7     8    1
    39    34    35   ar
    40    35    36   ar
    41    36    26   ar
    42    35    29   ar
    43     6     1    1
    44     8     1    1
    45    17    12   ar
    46    22    15    1
    47     9    10    1
    48    18    23    1
@<TRIPOS>MOLECULE
*****
 43 48 0 0 0
SMALL
GASTEIGER

@<TRIPOS>ATOM
      1 C         143.7905  141.9100  164.0234 C.3     1  UNL1        0.0932
      2 C         142.8020  142.4042  165.0376 C.3     1  UNL1        0.0286
      3 C         142.0528  143.6807  164.7947 C.3     1  UNL1        0.0193
      4 C         142.2921  144.4632  163.5374 C.3     1  UNL1        0.0700
      5 C         143.2806  143.9690  162.5232 C.3     1  UNL1        0.0193
      6 C         144.0298  142.6923  162.7662 C.3     1  UNL1        0.0286
      7 C         142.7264  143.7693  163.6265 C.3     1  UNL1        0.1562
      8 O         143.4038  142.6150  163.8461 O.3     1  UNL1       -0.3572
      9 N         141.5429  145.7397  163.2945 N.3     1  UNL1       -0.2926
     10 H         142.2013  146.3906  162.8662 H       1  UNL1        0.1236
     11 C         140.3149  145.7364  162.4331 C.3     1  UNL1        0.1152
     12 C         139.5292  144.4716  162.2521 C.ar    1  UNL1        0.0765
     13 C         138.4563  144.1080  163.2354 C.ar    1  UNL1        0.0193
     14 C         137.6705  142.8432  163.0544 C.ar    1  UNL1        0.0411
     15 C         137.9576  141.9419  161.8902 C.ar    1  UNL1        0.1708
     16 C         139.0304  142.3055  160.9070 C.ar    1  UNL1        0.1682
     17 N         139.8162  143.5704  161.0879 N.ar    1  UNL1       -0.2304
     18 N         139.3174  141.4043  159.7428 N.am    1  UNL1       -0.2639
     19 C         138.5317  140.1395  159.5618 C.2     1  UNL1        0.2718
     20 O         138.8187  139.2382  158.3976 O.2     1  UNL1       -0.2707
     21 C         137.4588  139.7758  160.5451 C.3     1  UNL1        0.2898
     22 O         137.1717  140.6771  161.7093 O.3     1  UNL1       -0.4628
     23 H         140.0216  141.6429  159.0974 H       1  UNL1        0.1565
     24 C         144.5396  140.6334  164.2664 C.3     1  UNL1        0.0320
     25 C         143.7963  139.3900  164.6557 C.3     1  UNL1        0.0327
     26 C         139.5188  139.2999  166.0502 C.ar    1  UNL1        0.2249
     27 C         138.4486  138.7536  165.1523 C.ar    1  UNL1        0.0593
     28 C         138.8043  138.2375  163.7896 C.ar    1  UNL1        0.0254
     29 C         140.2301  138.2675  163.3247 C.ar    1  UNL1        0.0990
     30 N         140.5857  137.7513  161.9620 N.ar    1  UNL1       -0.2400
     31 C         142.0115  137.7813  161.4971 C.ar    1  UNL1        0.1281
     32 C         143.0818  138.3276  162.3951 C.ar    1  UNL1        0.1566
     33 F         144.5076  138.3576  161.9302 F       1  UNL1       -0.2028
     34 C         142.7262  138.8438  163.7578 C.ar    1  UNL1        0.0261
     35 C         141.3003  138.8137  164.2226 C.ar    1  UNL1        0.1002
     36 N         140.9446  139.3299  165.5854 N.ar    1  UNL1       -0.2104
     37 O         139.1632  139.8161  167.4130 O.3     1  UNL1       -0.4602
     38 C         140.2191  140.4364  168.2791 C.3     1  UNL1        0.2075
     39 C         140.5116  141.9036  168.1706 C.3     1  UNL1        0.0533
     40 C         141.2705  142.5997  169.2613 C.3     1  UNL1        0.0455
     41 O         140.5979  142.2660  171.7485 O.co2   1  UNL1       -0.5492
     42 C         140.5517  143.0778  170.4879 C.2     1  UNL1        0.0505
     43 O         139.7866  144.3675  170.4540 O.co2   1  UNL1       -0.5492
@<TRIPOS>UNITY_ATOM_ATTR
41 1
charge -1
@<TRIPOS>BOND
     1    41    42   ar
     2    42    43   ar
     3    42    40    1
     4    40    39    1
     5    39    38    1
     6    38    37    1
     7    37    26    1
     8    26    27   ar
     9    27    28   ar
    10    28    29   ar
    11    29    30   ar
    12    30    31   ar
    13    31    32   ar
    14    32    33    1
    15    32    34   ar
    16    34    25    1
    17    25    24    1
    18    24     1    1
    19     1     2    1
    20     2     3    1
    21     3     4    1
    22     4     9    1
    23     9    11    1
    24    11    12    1
    25    12    13   ar
    26    13    14   ar
    27    14    15   ar
    28    15    16   ar
    29    16    17   ar
    30    16    18    1
    31    18    19   am
    32    19    20    2
    33    19    21    1
    34    21    22    1
    35     4     5    1
    36     5     6    1
    37     4     7    1
    38     7     8    1
    39    34    35   ar
    40    35    36   ar
    41    36    26   ar
    42    35    29   ar
    43     6     1    1
    44     8     1    1
    45    17    12   ar
    46    22    15    1
    47     9    10    1
    48    18    23    1
@<TRIPOS>MOLECULE
*****
 43 48 0 0 0
SMALL
GASTEIGER

@<TRIPOS>ATOM
      1 C         137.7252  142.9037  163.4513 C.3     1  UNL1        0.0932
      2 C         137.6991  141.6480  164.2714 C.3     1  UNL1        0.0286
      3 C         137.8035  140.3110  163.5995 C.3     1  UNL1        0.0193
      4 C         137.9341  140.2297  162.1073 C.3     1  UNL1        0.0700
      5 C         137.9602  141.4854  161.2872 C.3     1  UNL1        0.0193
      6 C         137.8558  142.8224  161.9592 C.3     1  UNL1        0.0286
      7 C         137.8799  140.9850  162.4306 C.3     1  UNL1        0.1562
      8 O         137.7855  142.1940  163.0382 O.3     1  UNL1       -0.3572
      9 N         138.0385  138.8927  161.4354 N.3     1  UNL1       -0.2926
     10 H         137.4533  138.9359  160.6011 H       1  UNL1        0.1236
     11 C         139.3771  138.3751  160.9990 C.3     1  UNL1        0.1152
     12 C         140.5549  138.4684  161.9231 C.ar    1  UNL1        0.0765
     13 C         140.6452  137.5642  163.1166 C.ar    1  UNL1        0.0193
     14 C         141.8231  137.6575  164.0407 C.ar    1  UNL1        0.0411
     15 C         142.9105  138.6549  163.7714 C.ar    1  UNL1        0.1708
     16 C         142.8202  139.5591  162.5780 C.ar    1  UNL1        0.1682
     17 N         141.6423  139.4658  161.6538 N.ar    1  UNL1       -0.2304
     18 N         143.9077  140.5565  162.3087 N.am    1  UNL1       -0.2639
     19 C         145.0855  140.6498  163.2328 C.2     1  UNL1        0.2718
     20 O         146.1730  141.6472  162.9635 O.2     1  UNL1       -0.2707
     21 C         145.1759  139.7456  164.4263 C.3     1  UNL1        0.2898
     22 O         144.0884  138.7481  164.6956 O.3     1  UNL1       -0.4628
     23 H         143.8484  141.1499  161.5254 H       1  UNL1        0.1565
     24 C         137.6208  144.2407  164.1232 C.3     1  UNL1        0.0320
     25 C         138.8644  144.9950  164.4900 C.3     1  UNL1        0.0327
     26 C         140.9267  142.1686  167.3200 C.ar    1  UNL1        0.2249
     27 C         142.2738  141.6085  166.9715 C.ar    1  UNL1        0.0593
     28 C         142.9335  141.9905  165.6796 C.ar    1  UNL1        0.0254
     29 C         142.2461  142.9326  164.7363 C.ar    1  UNL1        0.0990
     30 N         142.9058  143.3146  163.4444 N.ar    1  UNL1       -0.2400
     31 C         142.2185  144.2566  162.5011 C.ar    1  UNL1        0.1281
     32 C         140.8713  144.8168  162.8496 C.ar    1  UNL1        0.1566
     33 F         140.1839  145.7589  161.9063 F       1  UNL1       -0.2028
     34 C         140.2115  144.4348  164.1414 C.ar    1  UNL1        0.0261
     35 C         140.8990  143.4927  165.0848 C.ar    1  UNL1        0.1002
     36 N         140.2393  143.1107  166.3766 N.ar    1  UNL1       -0.2104
     37 O         140.2670  141.7867  168.6118 O.3     1  UNL1       -0.4602
     38 C         140.1866  140.3442  169.0151 C.3     1  UNL1        0.2075
     39 C         141.0558  139.8254  170.1221 C.3     1  UNL1        0.0533
     40 C         142.3942  140.4514  170.3809 C.3     1  UNL1        0.0455
     41 O         141.6252  142.4060  171.9101 O.co2   1  UNL1       -0.5492
     42 C         142.4817  141.8915  170.7913 C.2     1  UNL1        0.0505
     43 O         143.4258  142.8172  170.0829 O.co2   1  UNL1       -0.5492
@<TRIPOS>UNITY_ATOM_ATTR
41 1
charge -1
@<TRIPOS>BOND
     1    41    42   ar
     2    42    43   ar
     3    42    40    1
     4    40    39    1
     5    39    38    1
     6    38    37    1
     7    37    26    1
     8    26    27   ar
     9    27    28   ar
    10    28    29   ar
    11    29    30   ar
    12    30    31   ar
    13    31    32   ar
    14    32    33    1
    15    32    34   ar
    16    34    25    1
    17    25    24    1
    18    24     1    1
    19     1     2    1
    20     2     3    1
    21     3     4    1
    22     4     9    1
    23     9    11    1
    24    11    12    1
    25    12    13   ar
    26    13    14   ar
    27    14    15   ar
    28    15    16   ar
    29    16    17   ar
    30    16    18    1
    31    18    19   am
    32    19    20    2
    33    19    21    1
    34    21    22    1
    35     4     5    1
    36     5     6    1
    37     4     7    1
    38     7     8    1
    39    34    35   ar
    40    35    36   ar
    41    36    26   ar
    42    35    29   ar
    43     6     1    1
    44     8     1    1
    45    17    12   ar
    46    22    15    1
    47     9    10    1
    48    18    23    1
@<TRIPOS>MOLECULE
*****
 43 48 0 0 0
SMALL
GASTEIGER

@<TRIPOS>ATOM
      1 C         142.8718  144.4491  163.3303 C.3     1  UNL1        0.0932
      2 C         142.9620  143.7610  162.0005 C.3     1  UNL1        0.0286
      3 C         141.7213  143.5303  161.1898 C.3     1  UNL1        0.0193
      4 C         140.3903  143.9877  161.7088 C.3     1  UNL1        0.0700
      5 C         140.3001  144.6759  163.0385 C.3     1  UNL1        0.0193
      6 C         141.5409  144.9066  163.8493 C.3     1  UNL1        0.0286
      7 C         141.0425  144.1364  162.1889 C.3     1  UNL1        0.1562
      8 O         142.1644  144.3450  162.9220 O.3     1  UNL1       -0.3572
      9 N         139.1496  143.7570  160.8980 N.3     1  UNL1       -0.2926
     10 H         139.4392  143.2743  160.0474 H       1  UNL1        0.1236
     11 C         138.0113  142.9697  161.4763 C.3     1  UNL1        0.1152
     12 C         138.2706  141.6421  162.1246 C.ar    1  UNL1        0.0765
     13 C         138.9174  140.5385  161.3413 C.ar    1  UNL1        0.0193
     14 C         139.1766  139.2109  161.9895 C.ar    1  UNL1        0.0411
     15 C         138.7891  138.9869  163.4212 C.ar    1  UNL1        0.1708
     16 C         138.1422  140.0905  164.2045 C.ar    1  UNL1        0.1682
     17 N         137.8830  141.4181  163.5563 N.ar    1  UNL1       -0.2304
     18 N         137.7546  139.8665  165.6362 N.am    1  UNL1       -0.2639
     19 C         138.0139  138.5389  166.2845 C.2     1  UNL1        0.2718
     20 O         137.6263  138.3149  167.7161 O.2     1  UNL1       -0.2707
     21 C         138.6607  137.4353  165.5011 C.3     1  UNL1        0.2898
     22 O         139.0483  137.6593  164.0694 O.3     1  UNL1       -0.4628
     23 H         137.3301  140.5908  166.1503 H       1  UNL1        0.1565
     24 C         144.1125  144.6799  164.1411 C.3     1  UNL1        0.0320
     25 C         144.4923  143.7124  165.2227 C.3     1  UNL1        0.0327
     26 C         141.1081  141.8493  167.5304 C.ar    1  UNL1        0.2249
     27 C         140.8058  140.3888  167.3704 C.ar    1  UNL1        0.0593
     28 C         141.6316  139.5494  166.4412 C.ar    1  UNL1        0.0254
     29 C         142.7597  140.1704  165.6720 C.ar    1  UNL1        0.0990
     30 N         143.5855  139.3310  164.7428 N.ar    1  UNL1       -0.2400
     31 C         144.7135  139.9520  163.9736 C.ar    1  UNL1        0.1281
     32 C         145.0158  141.4125  164.1335 C.ar    1  UNL1        0.1566
     33 F         146.1439  142.0336  163.3643 F       1  UNL1       -0.2028
     34 C         144.1901  142.2520  165.0627 C.ar    1  UNL1        0.0261
     35 C         143.0619  141.6309  165.8320 C.ar    1  UNL1        0.1002
     36 N         142.2362  142.4703  166.7612 N.ar    1  UNL1       -0.2104
     37 O         140.2823  142.6887  168.4596 O.3     1  UNL1       -0.4602
     38 C         139.9653  142.1907  169.8385 C.3     1  UNL1        0.2075
     39 C         141.0585  142.0547  170.8566 C.3     1  UNL1        0.0533
     40 C         142.3431  142.8096  170.6830 C.3     1  UNL1        0.0455
     41 O         144.7769  142.9149  169.7799 O.co2   1  UNL1       -0.5492
     42 C         143.5428  142.1242  170.0991 C.2     1  UNL1        0.0505
     43 O         143.5084  140.6482  169.8343 O.co2   1  UNL1       -0.5492
@<TRIPOS>UNITY_ATOM_ATTR
41 1
charge -1
@<TRIPOS>BOND
     1    41    42   ar
     2    42    43   ar
     3    42    40    1
     4    40    39    1
     5    39    38    1
     6    38    37    1
     7    37    26    1
     8    26    27   ar
     9    27    28   ar
    10    28    29   ar
    11    29    30   ar
    12    30    31   ar
    13    31    32   ar
    14    32    33    1
    15    32    34   ar
    16    34    25    1
    17    25    24    1
    18    24     1    1
    19     1     2    1
    20     2     3    1
    21     3     4    1
    22     4     9    1
    23     9    11    1
    24    11    12    1
    25    12    13   ar
    26    13    14   ar
    27    14    15   ar
    28    15    16   ar
    29    16    17   ar
    30    16    18    1
    31    18    19   am
    32    19    20    2
    33    19    21    1
    34    21    22    1
    35     4     5    1
    36     5     6    1
    37     4     7    1
    38     7     8    1
    39    34    35   ar
    40    35    36   ar
    41    36    26   ar
    42    35    29   ar
    43     6     1    1
    44     8     1    1
    45    17    12   ar
    46    22    15    1
    47     9    10    1
    48    18    23    1
@<TRIPOS>MOLECULE
*****
 43 48 0 0 0
SMALL
GASTEIGER

@<TRIPOS>ATOM
      1 C         144.4529  139.8792  163.5350 C.3     1  UNL1        0.0932
      2 C         143.7701  139.1718  164.6679 C.3     1  UNL1        0.0286
      3 C         142.6371  138.2291  164.3894 C.3     1  UNL1        0.0193
      4 C         142.1868  137.9938  162.9780 C.3     1  UNL1        0.0700
      5 C         142.8696  138.7012  161.8451 C.3     1  UNL1        0.0193
      6 C         144.0027  139.6439  162.1237 C.3     1  UNL1        0.0286
      7 C         142.8121  138.5195  163.0812 C.3     1  UNL1        0.1562
      8 O         143.8366  139.3719  163.3330 O.3     1  UNL1       -0.3572
      9 N         141.0538  137.0512  162.6995 N.3     1  UNL1       -0.2926
     10 H         141.1665  136.2599  163.3332 H       1  UNL1        0.1236
     11 C         139.6360  137.5202  162.8403 C.3     1  UNL1        0.1152
     12 C         139.2796  138.9400  162.5128 C.ar    1  UNL1        0.0765
     13 C         139.2962  139.4078  161.0876 C.ar    1  UNL1        0.0193
     14 C         138.9399  140.8275  160.7601 C.ar    1  UNL1        0.0411
     15 C         138.5670  141.7795  161.8576 C.ar    1  UNL1        0.1708
     16 C         138.5504  141.3118  163.2827 C.ar    1  UNL1        0.1682
     17 N         138.9067  139.8920  163.6103 N.ar    1  UNL1       -0.2304
     18 N         138.1775  142.2638  164.3802 N.am    1  UNL1       -0.2639
     19 C         137.8211  143.6836  164.0527 C.2     1  UNL1        0.2718
     20 O         137.4482  144.6356  165.1502 O.2     1  UNL1       -0.2707
     21 C         137.8377  144.1513  162.6275 C.3     1  UNL1        0.2898
     22 O         138.2106  143.1993  161.5300 O.3     1  UNL1       -0.4628
     23 H         138.1666  141.9568  165.3156 H       1  UNL1        0.1565
     24 C         145.5859  140.8218  163.8135 C.3     1  UNL1        0.0320
     25 C         145.3033  142.2062  164.3172 C.3     1  UNL1        0.0327
     26 C         142.2789  141.8826  167.6336 C.ar    1  UNL1        0.2249
     27 C         140.9128  142.4783  167.4635 C.ar    1  UNL1        0.0593
     28 C         140.5548  143.1817  166.1880 C.ar    1  UNL1        0.0254
     29 C         141.5629  143.2896  165.0825 C.ar    1  UNL1        0.0990
     30 N         141.2049  143.9931  163.8070 N.ar    1  UNL1       -0.2400
     31 C         142.2130  144.1009  162.7015 C.ar    1  UNL1        0.1281
     32 C         143.5792  143.5053  162.8716 C.ar    1  UNL1        0.1566
     33 F         144.5873  143.6132  161.7661 F       1  UNL1       -0.2028
     34 C         143.9372  142.8018  164.1471 C.ar    1  UNL1        0.0261
     35 C         142.9290  142.6940  165.2526 C.ar    1  UNL1        0.1002
     36 N         143.2870  141.9905  166.5281 N.ar    1  UNL1       -0.2104
     37 O         142.6369  141.1792  168.9091 O.3     1  UNL1       -0.4602
     38 C         142.0042  139.8604  169.2413 C.3     1  UNL1        0.2075
     39 C         140.9182  139.7884  170.2735 C.3     1  UNL1        0.0533
     40 C         139.9058  140.8906  170.3751 C.3     1  UNL1        0.0455
     41 O         139.2455  143.2697  171.1838 O.co2   1  UNL1       -0.5492
     42 C         140.2315  142.1402  171.1383 C.2     1  UNL1        0.0505
     43 O         141.5432  142.2603  171.8559 O.co2   1  UNL1       -0.5492
@<TRIPOS>UNITY_ATOM_ATTR
41 1
charge -1
@<TRIPOS>BOND
     1    41    42   ar
     2    42    43   ar
     3    42    40    1
     4    40    39    1
     5    39    38    1
     6    38    37    1
     7    37    26    1
     8    26    27   ar
     9    27    28   ar
    10    28    29   ar
    11    29    30   ar
    12    30    31   ar
    13    31    32   ar
    14    32    33    1
    15    32    34   ar
    16    34    25    1
    17    25    24    1
    18    24     1    1
    19     1     2    1
    20     2     3    1
    21     3     4    1
    22     4     9    1
    23     9    11    1
    24    11    12    1
    25    12    13   ar
    26    13    14   ar
    27    14    15   ar
    28    15    16   ar
    29    16    17   ar
    30    16    18    1
    31    18    19   am
    32    19    20    2
    33    19    21    1
    34    21    22    1
    35     4     5    1
    36     5     6    1
    37     4     7    1
    38     7     8    1
    39    34    35   ar
    40    35    36   ar
    41    36    26   ar
    42    35    29   ar
    43     6     1    1
    44     8     1    1
    45    17    12   ar
    46    22    15    1
    47     9    10    1
    48    18    23    1
@<TRIPOS>MOLECULE
*****
 43 48 0 0 0
SMALL
GASTEIGER

@<TRIPOS>ATOM
      1 C         139.0090  143.0438  163.1058 C.3     1  UNL1        0.0932
      2 C         139.5476  143.3100  161.7314 C.3     1  UNL1        0.0286
      3 C         140.8372  144.0574  161.5630 C.3     1  UNL1        0.0193
      4 C         141.5882  144.5385  162.7691 C.3     1  UNL1        0.0700
      5 C         141.0496  144.2723  164.1435 C.3     1  UNL1        0.0193
      6 C         139.7600  143.5249  164.3119 C.3     1  UNL1        0.0286
      7 C         140.8858  144.1332  162.9115 C.3     1  UNL1        0.1562
      8 O         139.7197  143.4574  163.0637 O.3     1  UNL1       -0.3572
      9 N         142.8778  145.2859  162.6007 N.3     1  UNL1       -0.2926
     10 H         142.8804  146.0296  163.2988 H       1  UNL1        0.1236
     11 C         144.1859  144.5638  162.7325 C.3     1  UNL1        0.1152
     12 C         144.2235  143.0651  162.6831 C.ar    1  UNL1        0.0765
     13 C         144.6494  142.2853  163.8917 C.ar    1  UNL1        0.0193
     14 C         144.6870  140.7866  163.8424 C.ar    1  UNL1        0.0411
     15 C         144.2989  140.0676  162.5844 C.ar    1  UNL1        0.1708
     16 C         143.8730  140.8474  161.3759 C.ar    1  UNL1        0.1682
     17 N         143.8354  142.3461  161.4252 N.ar    1  UNL1       -0.2304
     18 N         143.4848  140.1284  160.1179 N.am    1  UNL1       -0.2639
     19 C         143.5225  138.6297  160.0686 C.2     1  UNL1        0.2718
     20 O         143.1343  137.9107  158.8106 O.2     1  UNL1       -0.2707
     21 C         143.9483  137.8499  161.2772 C.3     1  UNL1        0.2898
     22 O         144.3365  138.5689  162.5351 O.3     1  UNL1       -0.4628
     23 H         143.2053  140.6402  159.3247 H       1  UNL1        0.1565
     24 C         137.7194  142.2964  163.2742 C.3     1  UNL1        0.0320
     25 C         137.7074  140.9695  163.9738 C.3     1  UNL1        0.0327
     26 C         141.3195  139.8471  166.4115 C.ar    1  UNL1        0.2249
     27 C         142.2254  138.7457  165.9465 C.ar    1  UNL1        0.0593
     28 C         141.9273  138.0185  164.6689 C.ar    1  UNL1        0.0254
     29 C         140.7233  138.3927  163.8563 C.ar    1  UNL1        0.0990
     30 N         140.4252  137.6655  162.5787 N.ar    1  UNL1       -0.2400
     31 C         139.2212  138.0396  161.7661 C.ar    1  UNL1        0.1281
     32 C         138.3152  139.1410  162.2311 C.ar    1  UNL1        0.1566
     33 F         137.1112  139.5151  161.4186 F       1  UNL1       -0.2028
     34 C         138.6133  139.8682  163.5088 C.ar    1  UNL1        0.0261
     35 C         139.8174  139.4940  164.3214 C.ar    1  UNL1        0.1002
     36 N         140.1155  140.2212  165.5990 N.ar    1  UNL1       -0.2104
     37 O         141.6176  140.5743  167.6892 O.3     1  UNL1       -0.4602
     38 C         141.2308  139.9675  169.0053 C.3     1  UNL1        0.2075
     39 C         139.8876  140.2656  169.6027 C.3     1  UNL1        0.0533
     40 C         139.5148  141.6782  169.9428 C.3     1  UNL1        0.0455
     41 O         140.7347  143.9571  170.2048 O.co2   1  UNL1       -0.5492
     42 C         140.4867  142.5547  170.6758 C.2     1  UNL1        0.0505
     43 O         141.2105  142.0288  171.8797 O.co2   1  UNL1       -0.5492
@<TRIPOS>UNITY_ATOM_ATTR
41 1
charge -1
@<TRIPOS>BOND
     1    41    42   ar
     2    42    43   ar
     3    42    40    1
     4    40    39    1
     5    39    38    1
     6    38    37    1
     7    37    26    1
     8    26    27   ar
     9    27    28   ar
    10    28    29   ar
    11    29    30   ar
    12    30    31   ar
    13    31    32   ar
    14    32    33    1
    15    32    34   ar
    16    34    25    1
    17    25    24    1
    18    24     1    1
    19     1     2    1
    20     2     3    1
    21     3     4    1
    22     4     9    1
    23     9    11    1
    24    11    12    1
    25    12    13   ar
    26    13    14   ar
    27    14    15   ar
    28    15    16   ar
    29    16    17   ar
    30    16    18    1
    31    18    19   am
    32    19    20    2
    33    19    21    1
    34    21    22    1
    35     4     5    1
    36     5     6    1
    37     4     7    1
    38     7     8    1
    39    34    35   ar
    40    35    36   ar
    41    36    26   ar
    42    35    29   ar
    43     6     1    1
    44     8     1    1
    45    17    12   ar
    46    22    15    1
    47     9    10    1
    48    18    23    1
@<TRIPOS>MOLECULE
*****
 43 48 0 0 0
SMALL
GASTEIGER

@<TRIPOS>ATOM
      1 C         141.9061  137.9855  164.5283 C.3     1  UNL1        0.0932
      2 C         140.4771  137.7398  164.9125 C.3     1  UNL1        0.0286
      3 C         139.4100  137.7195  163.8586 C.3     1  UNL1        0.0193
      4 C         139.7718  137.9450  162.4204 C.3     1  UNL1        0.0700
      5 C         141.2008  138.1907  162.0362 C.3     1  UNL1        0.0193
      6 C         142.2680  138.2109  163.0902 C.3     1  UNL1        0.0286
      7 C         140.3913  137.9652  162.9624 C.3     1  UNL1        0.1562
      8 O         141.3562  137.9836  163.9154 O.3     1  UNL1       -0.3572
      9 N         138.7047  137.9247  161.3665 N.3     1  UNL1       -0.2926
     10 H         138.2776  136.9989  161.3977 H       1  UNL1        0.1236
     11 C         137.5838  138.9204  161.4148 C.3     1  UNL1        0.1152
     12 C         137.8830  140.3776  161.6065 C.ar    1  UNL1        0.0765
     13 C         137.3408  141.1036  162.8020 C.ar    1  UNL1        0.0193
     14 C         137.6399  142.5609  162.9938 C.ar    1  UNL1        0.0411
     15 C         138.4812  143.2923  161.9902 C.ar    1  UNL1        0.1708
     16 C         139.0234  142.5664  160.7948 C.ar    1  UNL1        0.1682
     17 N         138.7243  141.1090  160.6029 N.ar    1  UNL1       -0.2304
     18 N         139.8647  143.2977  159.7911 N.am    1  UNL1       -0.2639
     19 C         140.1639  144.7550  159.9829 C.2     1  UNL1        0.2718
     20 O         141.0052  145.4864  158.9793 O.2     1  UNL1       -0.2707
     21 C         139.6217  145.4810  161.1784 C.3     1  UNL1        0.2898
     22 O         138.7803  144.7496  162.1820 O.3     1  UNL1       -0.4628
     23 H         140.2206  142.8213  159.0065 H       1  UNL1        0.1565
     24 C         142.9733  138.0058  165.5822 C.3     1  UNL1        0.0320
     25 C         143.3926  139.3068  166.2000 C.3     1  UNL1        0.0327
     26 C         141.4109  142.8820  164.3183 C.ar    1  UNL1        0.2249
     27 C         140.4229  143.6920  165.1042 C.ar    1  UNL1        0.0593
     28 C         140.0955  143.3103  166.5174 C.ar    1  UNL1        0.0254
     29 C         140.7561  142.1186  167.1447 C.ar    1  UNL1        0.0990
     30 N         140.4286  141.7369  168.5578 N.ar    1  UNL1       -0.2400
     31 C         141.0892  140.5452  169.1851 C.ar    1  UNL1        0.1281
     32 C         142.0772  139.7351  168.3991 C.ar    1  UNL1        0.1566
     33 F         142.7378  138.5434  169.0263 F       1  UNL1       -0.2028
     34 C         142.4047  140.1168  166.9859 C.ar    1  UNL1        0.0261
     35 C         141.7440  141.3086  166.3587 C.ar    1  UNL1        0.1002
     36 N         142.0715  141.6903  164.9455 N.ar    1  UNL1       -0.2104
     37 O         141.7383  143.2637  162.9051 O.3     1  UNL1       -0.4602
     38 C         142.7367  144.3498  162.6337 C.3     1  UNL1        0.2075
     39 C         144.2011  144.0873  162.8250 C.3     1  UNL1        0.0533
     40 C         144.8834  143.0211  162.0201 C.3     1  UNL1        0.0455
     41 O         145.9162  141.6532  163.9726 O.co2   1  UNL1       -0.5492
     42 C         145.2100  141.6995  162.6500 C.2     1  UNL1        0.0505
     43 O         144.8305  140.4243  161.9573 O.co2   1  UNL1       -0.5492
@<TRIPOS>UNITY_ATOM_ATTR
41 1
charge -1
@<TRIPOS>BOND
     1    41    42   ar
     2    42    43   ar
     3    42    40    1
     4    40    39    1
     5    39    38    1
     6    38    37    1
     7    37    26    1
     8    26    27   ar
     9    27    28   ar
    10    28    29   ar
    11    29    30   ar
    12    30    31   ar
    13    31    32   ar
    14    32    33    1
    15    32    34   ar
    16    34    25    1
    17    25    24    1
    18    24     1    1
    19     1     2    1
    20     2     3    1
    21     3     4    1
    22     4     9    1
    23     9    11    1
    24    11    12    1
    25    12    13   ar
    26    13    14   ar
    27    14    15   ar
    28    15    16   ar
    29    16    17   ar
    30    16    18    1
    31    18    19   am
    32    19    20    2
    33    19    21    1
    34    21    22    1
    35     4     5    1
    36     5     6    1
    37     4     7    1
    38     7     8    1
    39    34    35   ar
    40    35    36   ar
    41    36    26   ar
    42    35    29   ar
    43     6     1    1
    44     8     1    1
    45    17    12   ar
    46    22    15    1
    47     9    10    1
    48    18    23    1
