@<TRIPOS>MOLECULE
*****
 36 40 0 0 0
SMALL
GASTEIGER

@<TRIPOS>ATOM
      1 C         139.6498  139.0548  161.4021 C.ar    1  UNL1        0.0494
      2 C         141.0729  138.7749  161.0196 C.ar    1  UNL1        0.0147
      3 C         141.4961  138.8697  159.5837 C.ar    1  UNL1        0.0056
      4 C         140.4962  139.2445  158.5303 C.ar    1  UNL1        0.0495
      5 C         140.9194  139.3393  157.0943 C.ar    1  UNL1        0.1362
      6 N         139.9195  139.7141  156.0409 N.ar    1  UNL1       -0.2118
      7 C         138.4963  139.9941  156.4234 C.ar    1  UNL1        0.1636
      8 N         138.0731  139.8993  157.8593 N.ar    1  UNL1       -0.2264
      9 C         139.0731  139.5245  158.9128 C.ar    1  UNL1        0.0869
     10 C         138.6499  139.4296  160.3487 C.ar    1  UNL1        0.0338
     11 C         138.3801  138.7705  165.7099 C.3     1  UNL1        0.1025
     12 C         139.0897  137.6200  165.0597 C.3     1  UNL1        0.0326
     13 C         139.5129  137.7148  163.6237 C.3     1  UNL1        0.0913
     14 N         139.2266  138.9600  162.8381 N.pl3   1  UNL1       -0.3074
     15 C         138.5170  140.1105  163.4883 C.3     1  UNL1        0.0913
     16 C         138.0937  140.0158  164.9242 C.3     1  UNL1        0.0326
     17 C         137.9569  138.6757  167.1458 C.2     1  UNL1        0.3165
     18 O         136.7743  137.8345  167.5252 O.2     1  UNL1       -0.2501
     19 O         138.7162  139.4221  168.2023 O.3     1  UNL1       -0.4485
     20 C         140.2682  141.5011  168.0629 C.3     1  UNL1        0.0513
     21 C         140.0500  140.0283  167.8803 C.3     1  UNL1        0.2086
     22 C         137.4964  140.3689  155.3700 C.ar    1  UNL1        0.0358
     23 C         136.8655  139.3043  154.5222 C.ar    1  UNL1        0.0030
     24 C         135.8656  139.6791  153.4688 C.ar    1  UNL1        0.0001
     25 C         135.4965  141.1185  153.2632 C.ar    1  UNL1        0.0000
     26 C         136.1275  142.1829  154.1110 C.ar    1  UNL1        0.0001
     27 C         137.1274  141.8081  155.1644 C.ar    1  UNL1        0.0030
     28 N         142.3425  139.0593  156.7118 N.pl3   1  UNL1       -0.2837
     29 H         142.9999  139.7919  156.6909 H       1  UNL1        0.1550
     30 C         142.7641  137.6631  156.3611 C.ar    1  UNL1        0.1276
     31 C         141.9106  136.4335  156.4594 C.ar    1  UNL1        0.0503
     32 C         142.7321  135.2618  156.0096 C.ar    1  UNL1        0.0815
     33 C         142.2731  133.8352  155.9470 C.3     1  UNL1        0.0540
     34 N         144.0934  135.7674  155.6333 N.ar    1  UNL1       -0.1760
     35 N         144.1131  137.2514  155.8505 N.ar    1  UNL1       -0.2631
     36 H         144.8773  137.8501  155.6867 H       1  UNL1        0.1903
@<TRIPOS>BOND
     1    20    21    1
     2    21    19    1
     3    19    17    1
     4    17    18    2
     5    17    11    1
     6    11    12    1
     7    12    13    1
     8    13    14    1
     9    14     1    1
    10     1     2   ar
    11     2     3   ar
    12     3     4   ar
    13     4     5   ar
    14     5    28    1
    15    28    30    1
    16    30    31   ar
    17    31    32   ar
    18    32    33    1
    19    32    34   ar
    20    34    35   ar
    21     5     6   ar
    22     6     7   ar
    23     7    22    1
    24    22    23   ar
    25    23    24   ar
    26    24    25   ar
    27    25    26   ar
    28    26    27   ar
    29     7     8   ar
    30     8     9   ar
    31     9    10   ar
    32    14    15    1
    33    15    16    1
    34    16    11    1
    35    10     1   ar
    36     9     4   ar
    37    35    30   ar
    38    27    22   ar
    39    28    29    1
    40    35    36    1
@<TRIPOS>MOLECULE
*****
 36 40 0 0 0
SMALL
GASTEIGER

@<TRIPOS>ATOM
      1 C         143.0508  140.0198  162.2751 C.ar    1  UNL1        0.0494
      2 C         143.4144  141.3179  161.6173 C.ar    1  UNL1        0.0147
      3 C         143.5583  141.3884  160.1259 C.ar    1  UNL1        0.0056
      4 C         143.3385  140.1609  159.2923 C.ar    1  UNL1        0.0495
      5 C         143.4824  140.2315  157.8009 C.ar    1  UNL1        0.1362
      6 N         143.2627  139.0039  156.9673 N.ar    1  UNL1       -0.2118
      7 C         142.8991  137.7058  157.6251 C.ar    1  UNL1        0.1636
      8 N         142.7553  137.6352  159.1165 N.ar    1  UNL1       -0.2264
      9 C         142.9750  138.8628  159.9501 C.ar    1  UNL1        0.0869
     10 C         142.8311  138.7922  161.4415 C.ar    1  UNL1        0.0338
     11 C         142.6192  139.8079  166.7494 C.3     1  UNL1        0.1025
     12 C         142.1541  141.0260  166.0079 C.3     1  UNL1        0.0326
     13 C         142.2980  141.0967  164.5165 C.3     1  UNL1        0.0913
     14 N         142.9070  139.9492  163.7666 N.pl3   1  UNL1       -0.3074
     15 C         143.3721  138.7310  164.5081 C.3     1  UNL1        0.0913
     16 C         143.2282  138.6604  165.9994 C.3     1  UNL1        0.0326
     17 C         142.4754  139.7373  168.2408 C.2     1  UNL1        0.3165
     18 O         143.1862  138.6655  169.0129 O.2     1  UNL1       -0.2501
     19 O         141.6207  140.7383  168.9601 O.3     1  UNL1       -0.4485
     20 C         143.6492  142.2519  169.5471 C.3     1  UNL1        0.0513
     21 C         142.2572  141.7747  169.8382 C.3     1  UNL1        0.2086
     22 C         142.6794  136.4783  156.7915 C.ar    1  UNL1        0.0358
     23 C         143.7191  135.3974  156.7596 C.ar    1  UNL1        0.0030
     24 C         143.4994  134.1699  155.9260 C.ar    1  UNL1        0.0001
     25 C         142.2400  134.0232  155.1244 C.ar    1  UNL1        0.0000
     26 C         141.2004  135.1040  155.1564 C.ar    1  UNL1        0.0001
     27 C         141.4201  136.3315  155.9900 C.ar    1  UNL1        0.0030
     28 N         143.8460  141.5296  157.1431 N.pl3   1  UNL1       -0.2837
     29 H         143.1382  142.1336  156.8214 H       1  UNL1        0.1550
     30 C         145.2880  141.9074  156.9754 C.ar    1  UNL1        0.1276
     31 C         146.2163  141.3940  155.9150 C.ar    1  UNL1        0.0503
     32 C         147.5568  142.0343  156.1229 C.ar    1  UNL1        0.0815
     33 C         148.7821  141.8056  155.2884 C.3     1  UNL1        0.0540
     34 N         147.4568  142.9434  157.3119 N.ar    1  UNL1       -0.1760
     35 N         146.0546  142.8650  157.8387 N.ar    1  UNL1       -0.2631
     36 H         145.6998  143.3558  158.6149 H       1  UNL1        0.1903
@<TRIPOS>BOND
     1    20    21    1
     2    21    19    1
     3    19    17    1
     4    17    18    2
     5    17    11    1
     6    11    12    1
     7    12    13    1
     8    13    14    1
     9    14     1    1
    10     1     2   ar
    11     2     3   ar
    12     3     4   ar
    13     4     5   ar
    14     5    28    1
    15    28    30    1
    16    30    31   ar
    17    31    32   ar
    18    32    33    1
    19    32    34   ar
    20    34    35   ar
    21     5     6   ar
    22     6     7   ar
    23     7    22    1
    24    22    23   ar
    25    23    24   ar
    26    24    25   ar
    27    25    26   ar
    28    26    27   ar
    29     7     8   ar
    30     8     9   ar
    31     9    10   ar
    32    14    15    1
    33    15    16    1
    34    16    11    1
    35    10     1   ar
    36     9     4   ar
    37    35    30   ar
    38    27    22   ar
    39    28    29    1
    40    35    36    1
@<TRIPOS>MOLECULE
*****
 36 40 0 0 0
SMALL
GASTEIGER

@<TRIPOS>ATOM
      1 C         141.6055  144.3225  158.9213 C.ar    1  UNL1        0.0494
      2 C         141.9446  145.5959  158.2049 C.ar    1  UNL1        0.0147
      3 C         141.1496  146.0155  157.0042 C.ar    1  UNL1        0.0056
      4 C         140.0155  145.1616  156.5198 C.ar    1  UNL1        0.0495
      5 C         139.2204  145.5812  155.3190 C.ar    1  UNL1        0.1362
      6 N         138.0863  144.7273  154.8347 N.ar    1  UNL1       -0.2118
      7 C         137.7472  143.4538  155.5512 C.ar    1  UNL1        0.1636
      8 N         138.5422  143.0343  156.7519 N.ar    1  UNL1       -0.2264
      9 C         139.6764  143.8882  157.2363 C.ar    1  UNL1        0.0869
     10 C         140.4714  143.4686  158.4370 C.ar    1  UNL1        0.0338
     11 C         143.9906  143.0637  162.5238 C.3     1  UNL1        0.1025
     12 C         144.3393  142.5253  161.1679 C.3     1  UNL1        0.0326
     13 C         143.5443  142.9449  159.9671 C.3     1  UNL1        0.0913
     14 N         142.4006  143.9029  160.1222 N.pl3   1  UNL1       -0.3074
     15 C         142.0519  144.4414  161.4781 C.3     1  UNL1        0.0913
     16 C         142.8469  144.0218  162.6789 C.3     1  UNL1        0.0326
     17 C         144.7856  142.6442  163.7246 C.2     1  UNL1        0.3165
     18 O         145.8848  141.6337  163.5807 O.2     1  UNL1       -0.2501
     19 O         144.4814  143.2351  165.0693 O.3     1  UNL1       -0.4485
     20 C         142.1348  142.4142  165.8241 C.3     1  UNL1        0.0513
     21 C         143.6174  142.4856  166.0398 C.3     1  UNL1        0.2086
     22 C         136.6130  142.5999  155.0668 C.ar    1  UNL1        0.0358
     23 C         136.0189  141.5595  155.9695 C.ar    1  UNL1        0.0030
     24 C         134.8848  140.7056  155.4852 C.ar    1  UNL1        0.0001
     25 C         134.3447  140.8921  154.0982 C.ar    1  UNL1        0.0000
     26 C         134.9388  141.9325  153.1956 C.ar    1  UNL1        0.0001
     27 C         136.0730  142.7864  153.6800 C.ar    1  UNL1        0.0030
     28 N         139.5595  146.8546  154.6026 N.pl3   1  UNL1       -0.2837
     29 H         140.0504  146.8239  153.7497 H       1  UNL1        0.1550
     30 C         139.1508  148.1749  155.1856 C.ar    1  UNL1        0.1276
     31 C         139.2766  149.5112  154.5158 C.ar    1  UNL1        0.0503
     32 C         138.7480  150.5529  155.4570 C.ar    1  UNL1        0.0815
     33 C         138.6833  152.0281  155.1931 C.3     1  UNL1        0.0540
     34 N         138.2956  149.8603  156.7083 N.ar    1  UNL1       -0.1760
     35 N         138.5445  148.3907  156.5405 N.ar    1  UNL1       -0.2631
     36 H         138.3450  147.6906  157.2033 H       1  UNL1        0.1903
@<TRIPOS>BOND
     1    20    21    1
     2    21    19    1
     3    19    17    1
     4    17    18    2
     5    17    11    1
     6    11    12    1
     7    12    13    1
     8    13    14    1
     9    14     1    1
    10     1     2   ar
    11     2     3   ar
    12     3     4   ar
    13     4     5   ar
    14     5    28    1
    15    28    30    1
    16    30    31   ar
    17    31    32   ar
    18    32    33    1
    19    32    34   ar
    20    34    35   ar
    21     5     6   ar
    22     6     7   ar
    23     7    22    1
    24    22    23   ar
    25    23    24   ar
    26    24    25   ar
    27    25    26   ar
    28    26    27   ar
    29     7     8   ar
    30     8     9   ar
    31     9    10   ar
    32    14    15    1
    33    15    16    1
    34    16    11    1
    35    10     1   ar
    36     9     4   ar
    37    35    30   ar
    38    27    22   ar
    39    28    29    1
    40    35    36    1
@<TRIPOS>MOLECULE
*****
 36 40 0 0 0
SMALL
GASTEIGER

@<TRIPOS>ATOM
      1 C         138.8800  139.4702  156.0257 C.ar    1  UNL1        0.0494
      2 C         139.6396  140.3180  157.0025 C.ar    1  UNL1        0.0147
      3 C         140.9145  139.8074  157.6057 C.ar    1  UNL1        0.0056
      4 C         141.4299  138.4492  157.2320 C.ar    1  UNL1        0.0495
      5 C         142.7049  137.9387  157.8353 C.ar    1  UNL1        0.1362
      6 N         143.2202  136.5805  157.4616 N.ar    1  UNL1       -0.2118
      7 C         142.4605  135.7327  156.4847 C.ar    1  UNL1        0.1636
      8 N         141.1856  136.2432  155.8815 N.ar    1  UNL1       -0.2264
      9 C         140.6703  137.6015  156.2552 C.ar    1  UNL1        0.0869
     10 C         139.3953  138.1120  155.6520 C.ar    1  UNL1        0.0338
     11 C         135.0551  141.0017  154.2160 C.3     1  UNL1        0.1025
     12 C         135.4951  139.5913  153.9572 C.3     1  UNL1        0.0326
     13 C         136.7701  139.0808  154.5605 C.3     1  UNL1        0.0913
     14 N         137.6050  139.9807  155.4224 N.pl3   1  UNL1       -0.3074
     15 C         137.1649  141.3912  155.6812 C.3     1  UNL1        0.0913
     16 C         135.8900  141.9017  155.0780 C.3     1  UNL1        0.0326
     17 C         133.7801  141.5122  153.6128 C.2     1  UNL1        0.3165
     18 O         133.7717  142.0327  152.2060 O.2     1  UNL1       -0.2501
     19 O         132.5136  141.5022  154.4164 O.3     1  UNL1       -0.4485
     20 C         131.3675  140.3391  156.4372 C.3     1  UNL1        0.0513
     21 C         132.5399  141.0694  155.8524 C.3     1  UNL1        0.2086
     22 C         142.9758  134.3745  156.1111 C.ar    1  UNL1        0.0358
     23 C         142.5136  133.7197  154.8431 C.ar    1  UNL1        0.0030
     24 C         143.0289  132.3614  154.4694 C.ar    1  UNL1        0.0001
     25 C         144.0065  131.6580  155.3637 C.ar    1  UNL1        0.0000
     26 C         144.4686  132.3128  156.6316 C.ar    1  UNL1        0.0001
     27 C         143.9533  133.6711  157.0053 C.ar    1  UNL1        0.0030
     28 N         143.4645  138.7864  158.8121 N.pl3   1  UNL1       -0.2837
     29 H         144.0639  139.4961  158.4860 H       1  UNL1        0.1550
     30 C         143.3109  138.5529  160.2859 C.ar    1  UNL1        0.1276
     31 C         142.0841  138.0299  160.9725 C.ar    1  UNL1        0.0503
     32 C         142.3721  137.9552  162.4428 C.ar    1  UNL1        0.0815
     33 C         141.4221  137.4860  163.5046 C.3     1  UNL1        0.0540
     34 N         143.7769  138.4320  162.6647 N.ar    1  UNL1       -0.1760
     35 N         144.3571  138.8014  161.3317 N.ar    1  UNL1       -0.2631
     36 H         145.2651  139.1464  161.1714 H       1  UNL1        0.1903
@<TRIPOS>BOND
     1    20    21    1
     2    21    19    1
     3    19    17    1
     4    17    18    2
     5    17    11    1
     6    11    12    1
     7    12    13    1
     8    13    14    1
     9    14     1    1
    10     1     2   ar
    11     2     3   ar
    12     3     4   ar
    13     4     5   ar
    14     5    28    1
    15    28    30    1
    16    30    31   ar
    17    31    32   ar
    18    32    33    1
    19    32    34   ar
    20    34    35   ar
    21     5     6   ar
    22     6     7   ar
    23     7    22    1
    24    22    23   ar
    25    23    24   ar
    26    24    25   ar
    27    25    26   ar
    28    26    27   ar
    29     7     8   ar
    30     8     9   ar
    31     9    10   ar
    32    14    15    1
    33    15    16    1
    34    16    11    1
    35    10     1   ar
    36     9     4   ar
    37    35    30   ar
    38    27    22   ar
    39    28    29    1
    40    35    36    1
@<TRIPOS>MOLECULE
*****
 36 40 0 0 0
SMALL
GASTEIGER

@<TRIPOS>ATOM
      1 C         142.1812  138.8798  162.4661 C.ar    1  UNL1        0.0494
      2 C         143.2563  138.0501  161.8292 C.ar    1  UNL1        0.0147
      3 C         143.2170  137.7747  160.3552 C.ar    1  UNL1        0.0056
      4 C         142.1025  138.3291  159.5181 C.ar    1  UNL1        0.0495
      5 C         142.0633  138.0538  158.0441 C.ar    1  UNL1        0.1362
      6 N         140.9488  138.6082  157.2070 N.ar    1  UNL1       -0.2118
      7 C         139.8737  139.4379  157.8440 C.ar    1  UNL1        0.1636
      8 N         139.9130  139.7132  159.3179 N.ar    1  UNL1       -0.2264
      9 C         141.0274  139.1588  160.1550 C.ar    1  UNL1        0.0869
     10 C         141.0667  139.4342  161.6290 C.ar    1  UNL1        0.0338
     11 C         142.2989  139.7059  166.8881 C.3     1  UNL1        0.1025
     12 C         143.1000  138.5746  166.3149 C.3     1  UNL1        0.0326
     13 C         143.0607  138.2992  164.8408 C.3     1  UNL1        0.0913
     14 N         142.2204  139.1551  163.9401 N.pl3   1  UNL1       -0.3074
     15 C         141.4194  140.2864  164.5133 C.3     1  UNL1        0.0913
     16 C         141.4586  140.5618  165.9873 C.3     1  UNL1        0.0326
     17 C         142.3382  139.9812  168.3620 C.2     1  UNL1        0.3165
     18 O         142.9443  138.9769  169.2968 O.2     1  UNL1       -0.2501
     19 O         141.7713  141.2610  168.9012 O.3     1  UNL1       -0.4485
     20 C         143.9304  142.3756  169.8210 C.3     1  UNL1        0.0513
     21 C         142.6497  142.4683  169.0457 C.3     1  UNL1        0.2086
     22 C         138.7593  139.9923  157.0069 C.ar    1  UNL1        0.0358
     23 C         138.5824  139.5286  155.5913 C.ar    1  UNL1        0.0030
     24 C         137.4680  140.0830  154.7542 C.ar    1  UNL1        0.0001
     25 C         136.5304  141.1011  155.3327 C.ar    1  UNL1        0.0000
     26 C         136.7073  141.5647  156.7482 C.ar    1  UNL1        0.0001
     27 C         137.8217  141.0103  157.5853 C.ar    1  UNL1        0.0030
     28 N         143.1384  137.2241  157.4072 N.pl3   1  UNL1       -0.2837
     29 H         144.0783  137.5126  157.4586 H       1  UNL1        0.1550
     30 C         142.7815  135.9547  156.6920 C.ar    1  UNL1        0.1276
     31 C         143.7073  134.8066  156.4187 C.ar    1  UNL1        0.0503
     32 C         142.9342  133.7530  155.6822 C.ar    1  UNL1        0.0815
     33 C         143.4705  132.4339  155.2105 C.3     1  UNL1        0.0540
     34 N         141.5306  134.2500  155.5004 N.ar    1  UNL1       -0.1760
     35 N         141.4363  135.6108  156.1245 N.ar    1  UNL1       -0.2631
     36 H         140.6326  136.1784  156.1561 H       1  UNL1        0.1903
@<TRIPOS>BOND
     1    20    21    1
     2    21    19    1
     3    19    17    1
     4    17    18    2
     5    17    11    1
     6    11    12    1
     7    12    13    1
     8    13    14    1
     9    14     1    1
    10     1     2   ar
    11     2     3   ar
    12     3     4   ar
    13     4     5   ar
    14     5    28    1
    15    28    30    1
    16    30    31   ar
    17    31    32   ar
    18    32    33    1
    19    32    34   ar
    20    34    35   ar
    21     5     6   ar
    22     6     7   ar
    23     7    22    1
    24    22    23   ar
    25    23    24   ar
    26    24    25   ar
    27    25    26   ar
    28    26    27   ar
    29     7     8   ar
    30     8     9   ar
    31     9    10   ar
    32    14    15    1
    33    15    16    1
    34    16    11    1
    35    10     1   ar
    36     9     4   ar
    37    35    30   ar
    38    27    22   ar
    39    28    29    1
    40    35    36    1
@<TRIPOS>MOLECULE
*****
 36 40 0 0 0
SMALL
GASTEIGER

@<TRIPOS>ATOM
      1 C         139.0063  140.0073  162.5974 C.ar    1  UNL1        0.0494
      2 C         137.7706  140.5474  161.9407 C.ar    1  UNL1        0.0147
      3 C         137.6393  140.5137  160.4469 C.ar    1  UNL1        0.0056
      4 C         138.7438  139.9398  159.6097 C.ar    1  UNL1        0.0495
      5 C         138.6125  139.9061  158.1158 C.ar    1  UNL1        0.1362
      6 N         139.7169  139.3323  157.2786 N.ar    1  UNL1       -0.2118
      7 C         140.9527  138.7921  157.9353 C.ar    1  UNL1        0.1636
      8 N         141.0839  138.8258  159.4291 N.ar    1  UNL1       -0.2264
      9 C         139.9795  139.3997  160.2663 C.ar    1  UNL1        0.0869
     10 C         140.1108  139.4334  161.7602 C.ar    1  UNL1        0.0338
     11 C         139.4003  140.1083  167.0790 C.3     1  UNL1        0.1025
     12 C         140.1467  141.1010  166.2379 C.3     1  UNL1        0.0326
     13 C         140.0154  141.0673  164.7440 C.3     1  UNL1        0.0913
     14 N         139.1377  140.0410  164.0913 N.pl3   1  UNL1       -0.3074
     15 C         138.3912  139.0483  164.9323 C.3     1  UNL1        0.0913
     16 C         138.5225  139.0819  166.4262 C.3     1  UNL1        0.0326
     17 C         139.5316  140.1420  168.5728 C.2     1  UNL1        0.3165
     18 O         138.4228  139.6157  169.4352 O.2     1  UNL1       -0.2501
     19 O         140.7716  140.7019  169.2043 O.3     1  UNL1       -0.4485
     20 C         142.4845  138.8989  169.9560 C.3     1  UNL1        0.0513
     21 C         141.4643  139.9440  170.2978 C.3     1  UNL1        0.2086
     22 C         142.0571  138.2183  157.0981 C.ar    1  UNL1        0.0358
     23 C         142.3909  136.7590  157.1949 C.ar    1  UNL1        0.0030
     24 C         143.4954  136.1852  156.3577 C.ar    1  UNL1        0.0001
     25 C         144.2660  137.0706  155.4237 C.ar    1  UNL1        0.0000
     26 C         143.9321  138.5297  155.3269 C.ar    1  UNL1        0.0001
     27 C         142.8277  139.1036  156.1641 C.ar    1  UNL1        0.0030
     28 N         137.3767  140.4463  157.4591 N.pl3   1  UNL1       -0.2837
     29 H         136.5491  139.9131  157.4537 H       1  UNL1        0.1550
     30 C         137.4020  141.7987  156.8108 C.ar    1  UNL1        0.1276
     31 C         138.5967  142.6982  156.6939 C.ar    1  UNL1        0.0503
     32 C         138.1701  143.9445  155.9764 C.ar    1  UNL1        0.0815
     33 C         139.0477  145.1146  155.6438 C.3     1  UNL1        0.0540
     34 N         136.7117  143.8153  155.6500 N.ar    1  UNL1       -0.1760
     35 N         136.2370  142.4891  156.1657 N.ar    1  UNL1       -0.2631
     36 H         135.3216  142.1342  156.0934 H       1  UNL1        0.1903
@<TRIPOS>BOND
     1    20    21    1
     2    21    19    1
     3    19    17    1
     4    17    18    2
     5    17    11    1
     6    11    12    1
     7    12    13    1
     8    13    14    1
     9    14     1    1
    10     1     2   ar
    11     2     3   ar
    12     3     4   ar
    13     4     5   ar
    14     5    28    1
    15    28    30    1
    16    30    31   ar
    17    31    32   ar
    18    32    33    1
    19    32    34   ar
    20    34    35   ar
    21     5     6   ar
    22     6     7   ar
    23     7    22    1
    24    22    23   ar
    25    23    24   ar
    26    24    25   ar
    27    25    26   ar
    28    26    27   ar
    29     7     8   ar
    30     8     9   ar
    31     9    10   ar
    32    14    15    1
    33    15    16    1
    34    16    11    1
    35    10     1   ar
    36     9     4   ar
    37    35    30   ar
    38    27    22   ar
    39    28    29    1
    40    35    36    1
@<TRIPOS>MOLECULE
*****
 36 40 0 0 0
SMALL
GASTEIGER

@<TRIPOS>ATOM
      1 C         141.9417  140.1270  162.3511 C.ar    1  UNL1        0.0494
      2 C         142.7938  141.3098  161.9977 C.ar    1  UNL1        0.0147
      3 C         143.4341  141.3950  160.6439 C.ar    1  UNL1        0.0056
      4 C         143.2222  140.2976  159.6436 C.ar    1  UNL1        0.0495
      5 C         143.8626  140.3829  158.2898 C.ar    1  UNL1        0.1362
      6 N         143.6507  139.2854  157.2894 N.ar    1  UNL1       -0.2118
      7 C         142.7985  138.1026  157.6429 C.ar    1  UNL1        0.1636
      8 N         142.1582  138.0174  158.9967 N.ar    1  UNL1       -0.2264
      9 C         142.3701  139.1148  159.9970 C.ar    1  UNL1        0.0869
     10 C         141.7298  139.0296  161.3508 C.ar    1  UNL1        0.0338
     11 C         140.0207  139.8711  166.4125 C.3     1  UNL1        0.1025
     12 C         140.8263  141.0799  166.0388 C.3     1  UNL1        0.0326
     13 C         141.4666  141.1652  164.6849 C.3     1  UNL1        0.0913
     14 N         141.3013  140.0417  163.7050 N.pl3   1  UNL1       -0.3074
     15 C         140.4957  138.8329  164.0787 C.3     1  UNL1        0.0913
     16 C         139.8554  138.7475  165.4325 C.3     1  UNL1        0.0326
     17 C         139.3804  139.7857  167.7663 C.2     1  UNL1        0.3165
     18 O         138.1246  138.9868  167.9530 O.2     1  UNL1       -0.2501
     19 O         139.9958  140.4993  168.9333 O.3     1  UNL1       -0.4485
     20 C         142.3560  139.4928  169.3416 C.3     1  UNL1        0.0513
     21 C         140.9656  139.7816  169.8247 C.3     1  UNL1        0.2086
     22 C         142.5867  137.0051  156.6426 C.ar    1  UNL1        0.0358
     23 C         141.1959  136.6304  156.2236 C.ar    1  UNL1        0.0030
     24 C         140.9841  135.5330  155.2233 C.ar    1  UNL1        0.0001
     25 C         142.1630  134.8102  154.6419 C.ar    1  UNL1        0.0000
     26 C         143.5536  135.1849  155.0610 C.ar    1  UNL1        0.0001
     27 C         143.7655  136.2824  156.0613 C.ar    1  UNL1        0.0030
     28 N         144.7147  141.5656  157.9363 N.pl3   1  UNL1       -0.2837
     29 H         144.7486  142.3450  158.5369 H       1  UNL1        0.1550
     30 C         145.5153  141.5609  156.6678 C.ar    1  UNL1        0.1276
     31 C         146.8917  142.1306  156.4919 C.ar    1  UNL1        0.0503
     32 C         147.3072  141.9075  155.0679 C.ar    1  UNL1        0.0815
     33 C         148.6130  142.3196  154.4556 C.3     1  UNL1        0.0540
     34 N         146.1875  141.2000  154.3638 N.ar    1  UNL1       -0.1760
     35 N         145.0801  140.9858  155.3526 N.ar    1  UNL1       -0.2631
     36 H         144.2188  140.5451  155.1704 H       1  UNL1        0.1903
@<TRIPOS>BOND
     1    20    21    1
     2    21    19    1
     3    19    17    1
     4    17    18    2
     5    17    11    1
     6    11    12    1
     7    12    13    1
     8    13    14    1
     9    14     1    1
    10     1     2   ar
    11     2     3   ar
    12     3     4   ar
    13     4     5   ar
    14     5    28    1
    15    28    30    1
    16    30    31   ar
    17    31    32   ar
    18    32    33    1
    19    32    34   ar
    20    34    35   ar
    21     5     6   ar
    22     6     7   ar
    23     7    22    1
    24    22    23   ar
    25    23    24   ar
    26    24    25   ar
    27    25    26   ar
    28    26    27   ar
    29     7     8   ar
    30     8     9   ar
    31     9    10   ar
    32    14    15    1
    33    15    16    1
    34    16    11    1
    35    10     1   ar
    36     9     4   ar
    37    35    30   ar
    38    27    22   ar
    39    28    29    1
    40    35    36    1
@<TRIPOS>MOLECULE
*****
 36 40 0 0 0
SMALL
GASTEIGER

@<TRIPOS>ATOM
      1 C         142.7823  139.9647  162.5270 C.ar    1  UNL1        0.0494
      2 C         141.9225  138.8141  162.0951 C.ar    1  UNL1        0.0147
      3 C         141.9260  138.3718  160.6618 C.ar    1  UNL1        0.0056
      4 C         142.7894  139.0803  159.6604 C.ar    1  UNL1        0.0495
      5 C         142.7930  138.6380  158.2271 C.ar    1  UNL1        0.1362
      6 N         143.6564  139.3464  157.2257 N.ar    1  UNL1       -0.2118
      7 C         144.5162  140.4971  157.6578 C.ar    1  UNL1        0.1636
      8 N         144.5127  140.9394  159.0911 N.ar    1  UNL1       -0.2264
      9 C         143.6493  140.2309  160.0924 C.ar    1  UNL1        0.0869
     10 C         143.6457  140.6732  161.5257 C.ar    1  UNL1        0.0338
     11 C         142.7717  141.2916  166.8270 C.3     1  UNL1        0.1025
     12 C         142.6200  139.8378  166.4904 C.3     1  UNL1        0.0326
     13 C         142.6235  139.3955  165.0570 C.3     1  UNL1        0.0913
     14 N         142.7788  140.4070  163.9604 N.pl3   1  UNL1       -0.3074
     15 C         142.9305  141.8609  164.2970 C.3     1  UNL1        0.0913
     16 C         142.9270  142.3032  165.7303 C.3     1  UNL1        0.0326
     17 C         142.7682  141.7339  168.2603 C.2     1  UNL1        0.3165
     18 O         143.7681  142.7461  168.7353 O.2     1  UNL1       -0.2501
     19 O         141.7647  141.1641  169.2185 O.3     1  UNL1       -0.4485
     20 C         140.4286  143.3923  169.2021 C.3     1  UNL1        0.0513
     21 C         140.7024  142.0462  169.8047 C.3     1  UNL1        0.2086
     22 C         145.3796  141.2056  156.6564 C.ar    1  UNL1        0.0358
     23 C         145.3155  140.8234  155.2073 C.ar    1  UNL1        0.0030
     24 C         146.1789  141.5318  154.2060 C.ar    1  UNL1        0.0001
     25 C         147.1064  142.6224  154.6538 C.ar    1  UNL1        0.0000
     26 C         147.1705  143.0046  156.1028 C.ar    1  UNL1        0.0001
     27 C         146.3071  142.2961  157.1042 C.ar    1  UNL1        0.0030
     28 N         141.9332  137.4873  157.7951 N.pl3   1  UNL1       -0.2837
     29 H         141.0708  137.3227  158.2407 H       1  UNL1        0.1550
     30 C         142.3872  136.5874  156.6842 C.ar    1  UNL1        0.1276
     31 C         141.4975  135.8444  155.7321 C.ar    1  UNL1        0.0503
     32 C         142.3710  135.0702  154.7898 C.ar    1  UNL1        0.0815
     33 C         141.8981  134.1867  153.6737 C.3     1  UNL1        0.0540
     34 N         143.8004  135.3349  155.1596 N.ar    1  UNL1       -0.1760
     35 N         143.8104  136.2725  156.3304 N.ar    1  UNL1       -0.2631
     36 H         144.6106  136.6202  156.7866 H       1  UNL1        0.1903
@<TRIPOS>BOND
     1    20    21    1
     2    21    19    1
     3    19    17    1
     4    17    18    2
     5    17    11    1
     6    11    12    1
     7    12    13    1
     8    13    14    1
     9    14     1    1
    10     1     2   ar
    11     2     3   ar
    12     3     4   ar
    13     4     5   ar
    14     5    28    1
    15    28    30    1
    16    30    31   ar
    17    31    32   ar
    18    32    33    1
    19    32    34   ar
    20    34    35   ar
    21     5     6   ar
    22     6     7   ar
    23     7    22    1
    24    22    23   ar
    25    23    24   ar
    26    24    25   ar
    27    25    26   ar
    28    26    27   ar
    29     7     8   ar
    30     8     9   ar
    31     9    10   ar
    32    14    15    1
    33    15    16    1
    34    16    11    1
    35    10     1   ar
    36     9     4   ar
    37    35    30   ar
    38    27    22   ar
    39    28    29    1
    40    35    36    1
@<TRIPOS>MOLECULE
*****
 36 40 0 0 0
SMALL
GASTEIGER

@<TRIPOS>ATOM
      1 C         138.3711  144.9942  155.2756 C.ar    1  UNL1        0.0494
      2 C         137.2218  144.4602  154.4733 C.ar    1  UNL1        0.0147
      3 C         136.5659  143.1706  154.8692 C.ar    1  UNL1        0.0056
      4 C         137.0594  142.4151  156.0674 C.ar    1  UNL1        0.0495
      5 C         136.4034  141.1255  156.4633 C.ar    1  UNL1        0.1362
      6 N         136.8969  140.3700  157.6616 N.ar    1  UNL1       -0.2118
      7 C         138.0463  140.9041  158.4639 C.ar    1  UNL1        0.1636
      8 N         138.7022  142.1937  158.0679 N.ar    1  UNL1       -0.2264
      9 C         138.2087  142.9492  156.8697 C.ar    1  UNL1        0.0869
     10 C         138.8646  144.2387  156.4738 C.ar    1  UNL1        0.0338
     11 C         140.3390  148.8630  154.0878 C.3     1  UNL1        0.1025
     12 C         139.2328  148.8643  155.1009 C.3     1  UNL1        0.0326
     13 C         138.5769  147.5747  155.4968 C.3     1  UNL1        0.0913
     14 N         139.0271  146.2839  154.8797 N.pl3   1  UNL1       -0.3074
     15 C         140.1333  146.2825  153.8666 C.3     1  UNL1        0.0913
     16 C         140.7892  147.5721  153.4707 C.3     1  UNL1        0.0326
     17 C         140.9950  150.1525  153.6919 C.2     1  UNL1        0.3165
     18 O         141.8140  150.2231  152.4372 O.2     1  UNL1       -0.2501
     19 O         140.8319  151.3715  154.5507 O.3     1  UNL1       -0.4485
     20 C         138.5061  152.5102  154.7603 C.3     1  UNL1        0.0513
     21 C         139.8730  152.4516  154.1456 C.3     1  UNL1        0.2086
     22 C         138.5397  140.1486  159.6621 C.ar    1  UNL1        0.0358
     23 C         139.7087  139.2175  159.5325 C.ar    1  UNL1        0.0030
     24 C         140.2021  138.4620  160.7307 C.ar    1  UNL1        0.0001
     25 C         139.5267  138.6377  162.0585 C.ar    1  UNL1        0.0000
     26 C         138.3578  139.5687  162.1880 C.ar    1  UNL1        0.0001
     27 C         137.8644  140.3242  160.9898 C.ar    1  UNL1        0.0030
     28 N         135.2540  140.5914  155.6611 N.pl3   1  UNL1       -0.2837
     29 H         135.3197  140.5413  154.6800 H       1  UNL1        0.1550
     30 C         134.0045  140.1338  156.3535 C.ar    1  UNL1        0.1276
     31 C         132.6055  140.5605  156.0207 C.ar    1  UNL1        0.0503
     32 C         131.6710  139.8596  156.9618 C.ar    1  UNL1        0.0815
     33 C         130.1773  139.9948  156.9845 C.3     1  UNL1        0.0540
     34 N         132.4925  138.9997  157.8760 N.ar    1  UNL1       -0.1760
     35 N         133.9347  139.1692  157.5001 N.ar    1  UNL1       -0.2631
     36 H         134.7009  138.7253  157.9303 H       1  UNL1        0.1903
@<TRIPOS>BOND
     1    20    21    1
     2    21    19    1
     3    19    17    1
     4    17    18    2
     5    17    11    1
     6    11    12    1
     7    12    13    1
     8    13    14    1
     9    14     1    1
    10     1     2   ar
    11     2     3   ar
    12     3     4   ar
    13     4     5   ar
    14     5    28    1
    15    28    30    1
    16    30    31   ar
    17    31    32   ar
    18    32    33    1
    19    32    34   ar
    20    34    35   ar
    21     5     6   ar
    22     6     7   ar
    23     7    22    1
    24    22    23   ar
    25    23    24   ar
    26    24    25   ar
    27    25    26   ar
    28    26    27   ar
    29     7     8   ar
    30     8     9   ar
    31     9    10   ar
    32    14    15    1
    33    15    16    1
    34    16    11    1
    35    10     1   ar
    36     9     4   ar
    37    35    30   ar
    38    27    22   ar
    39    28    29    1
    40    35    36    1
