@<TRIPOS>MOLECULE
*****
 34 39 0 0 0
SMALL
GASTEIGER

@<TRIPOS>ATOM
      1 C         142.5393  142.6365  158.2241 C.3     1  UNL1        0.0948
      2 N         142.6845  141.3908  157.4013 N.3     1  UNL1       -0.2887
      3 C         143.3774  140.1901  157.9743 C.3     1  UNL1        0.1161
      4 C         143.9250  140.2352  159.3700 C.3     1  UNL1        0.0510
      5 C         143.7797  141.4809  160.1928 C.2     1  UNL1       -0.0044
      6 C         143.0869  142.6816  159.6199 C.2     1  UNL1        0.0689
      7 N         143.0937  143.7613  160.6610 N.2     1  UNL1       -0.2526
      8 C         143.7908  143.2280  161.8774 C.2     1  UNL1        0.0627
      9 C         144.0943  143.8437  163.2112 C.3     1  UNL1        0.0717
     10 C         144.8217  143.0499  164.2555 C.2     1  UNL1       -0.0198
     11 C         145.2457  141.6405  163.9661 C.2     1  UNL1       -0.0042
     12 C         144.9422  141.0248  162.6324 C.2     1  UNL1        0.0006
     13 C         144.2148  141.8186  161.5881 C.2     1  UNL1        0.0111
     14 H         143.1968  141.6523  156.5590 H       1  UNL1        0.1239
     15 O         140.4874  147.1055  155.2813 O.2     1  UNL1       -0.1730
     16 S         140.4607  146.2386  156.5051 S.O2    1  UNL1       -0.0100
     17 O         139.3725  147.2113  156.8511 O.2     1  UNL1       -0.1730
     18 C         140.0561  145.7095  157.8491 C.3     1  UNL1        0.1509
     19 C         140.7490  144.5088  158.4222 C.3     1  UNL1        0.0271
     20 C         141.8464  143.8372  157.6512 C.3     1  UNL1        0.0237
     21 C         142.2510  144.3663  156.3071 C.3     1  UNL1        0.0271
     22 C         141.5582  145.5670  155.7341 C.3     1  UNL1        0.1509
     23 C         143.5226  138.9443  157.1514 C.ar    1  UNL1        0.1318
     24 N         142.9438  137.5996  157.4780 N.ar    1  UNL1       -0.2298
     25 C         143.3356  136.6487  156.3861 C.ar    1  UNL1        0.0996
     26 C         144.1566  137.4058  155.3847 C.ar    1  UNL1        0.0927
     27 N         144.2722  138.8245  155.8577 N.ar    1  UNL1       -0.3386
     28 H         144.7552  139.5498  155.3995 H       1  UNL1        0.1672
     29 C         142.9705  135.1958  156.3091 C.ar    1  UNL1        0.0192
     30 C         143.7315  134.1874  157.1178 C.ar    1  UNL1        0.0015
     31 C         143.3665  132.7346  157.0408 C.ar    1  UNL1        0.0000
     32 C         142.2404  132.2902  156.1551 C.ar    1  UNL1        0.0000
     33 C         141.4794  133.2986  155.3464 C.ar    1  UNL1        0.0000
     34 C         141.8445  134.7514  155.4234 C.ar    1  UNL1        0.0015
@<TRIPOS>BOND
     1    15    16    2
     2    16    17    2
     3    16    18    1
     4    18    19    1
     5    19    20    1
     6    20     1    1
     7     1     2    1
     8     2     3    1
     9     3    23    1
    10    23    24   ar
    11    24    25   ar
    12    25    29    1
    13    29    30   ar
    14    30    31   ar
    15    31    32   ar
    16    32    33   ar
    17    33    34   ar
    18    25    26   ar
    19    26    27   ar
    20     3     4    1
    21     4     5    1
    22     5     6    2
    23     6     7    1
    24     7     8    2
    25     8     9    1
    26     9    10    1
    27    10    11    2
    28    11    12    1
    29    12    13    2
    30    20    21    1
    31    21    22    1
    32    22    16    1
    33     6     1    1
    34    13     8    1
    35    27    23   ar
    36    13     5    1
    37    34    29   ar
    38     2    14    1
    39    27    28    1
@<TRIPOS>MOLECULE
*****
 34 39 0 0 0
SMALL
GASTEIGER

@<TRIPOS>ATOM
      1 C         142.2762  137.4965  156.5880 C.3     1  UNL1        0.0948
      2 N         141.2198  137.6245  157.6451 N.3     1  UNL1       -0.2887
      3 C         141.2237  138.8051  158.5703 C.3     1  UNL1        0.1161
      4 C         142.2840  139.8579  158.4383 C.3     1  UNL1        0.0510
      5 C         143.3405  139.7300  157.3812 C.2     1  UNL1       -0.0044
      6 C         143.3366  138.5493  156.4560 C.2     1  UNL1        0.0689
      7 N         144.4977  138.6923  155.5172 N.2     1  UNL1       -0.2526
      8 C         145.2192  139.9614  155.8621 C.2     1  UNL1        0.0627
      9 C         146.4350  140.6158  155.2760 C.3     1  UNL1        0.0717
     10 C         146.9356  141.9115  155.8420 C.2     1  UNL1       -0.0198
     11 C         146.2204  142.5529  156.9940 C.2     1  UNL1       -0.0042
     12 C         145.0046  141.8985  157.5801 C.2     1  UNL1        0.0006
     13 C         144.5040  140.6027  157.0141 C.2     1  UNL1        0.0111
     14 H         141.2864  136.7916  158.2302 H       1  UNL1        0.1239
     15 O         141.8880  133.5991  152.4046 O.2     1  UNL1       -0.1730
     16 S         142.2645  133.9545  153.8123 S.O2    1  UNL1       -0.0100
     17 O         142.6349  132.5010  153.8027 O.2     1  UNL1       -0.1730
     18 C         142.7696  133.8051  155.2168 C.3     1  UNL1        0.1509
     19 C         142.7735  134.9859  156.1420 C.3     1  UNL1        0.0271
     20 C         142.2723  136.3158  155.6628 C.3     1  UNL1        0.0237
     21 C         141.7671  136.4652  154.2583 C.3     1  UNL1        0.0271
     22 C         141.7632  135.2846  153.3331 C.3     1  UNL1        0.1509
     23 C         140.1672  138.9331  159.6275 C.ar    1  UNL1        0.1318
     24 N         140.3655  138.7328  161.1007 N.ar    1  UNL1       -0.2298
     25 C         139.0479  138.9597  161.7808 C.ar    1  UNL1        0.0996
     26 C         138.0354  139.3003  160.7278 C.ar    1  UNL1        0.0927
     27 N         138.7272  139.2838  159.3970 N.ar    1  UNL1       -0.3386
     28 H         138.3094  139.4704  158.5253 H       1  UNL1        0.1672
     29 C         138.7885  138.8630  163.2551 C.ar    1  UNL1        0.0192
     30 C         138.3348  140.0725  164.0176 C.ar    1  UNL1        0.0015
     31 C         138.0753  139.9758  165.4918 C.ar    1  UNL1        0.0000
     32 C         138.2695  138.6698  166.2035 C.ar    1  UNL1        0.0000
     33 C         138.7232  137.4604  165.4409 C.ar    1  UNL1        0.0000
     34 C         138.9827  137.5570  163.9667 C.ar    1  UNL1        0.0015
@<TRIPOS>BOND
     1    15    16    2
     2    16    17    2
     3    16    18    1
     4    18    19    1
     5    19    20    1
     6    20     1    1
     7     1     2    1
     8     2     3    1
     9     3    23    1
    10    23    24   ar
    11    24    25   ar
    12    25    29    1
    13    29    30   ar
    14    30    31   ar
    15    31    32   ar
    16    32    33   ar
    17    33    34   ar
    18    25    26   ar
    19    26    27   ar
    20     3     4    1
    21     4     5    1
    22     5     6    2
    23     6     7    1
    24     7     8    2
    25     8     9    1
    26     9    10    1
    27    10    11    2
    28    11    12    1
    29    12    13    2
    30    20    21    1
    31    21    22    1
    32    22    16    1
    33     6     1    1
    34    13     8    1
    35    27    23   ar
    36    13     5    1
    37    34    29   ar
    38     2    14    1
    39    27    28    1
@<TRIPOS>MOLECULE
*****
 34 39 0 0 0
SMALL
GASTEIGER

@<TRIPOS>ATOM
      1 C         141.8683  140.5873  159.1705 C.3     1  UNL1        0.0948
      2 N         142.3762  139.6402  158.1242 N.3     1  UNL1       -0.2887
      3 C         142.5509  138.1864  158.4498 C.3     1  UNL1        0.1161
      4 C         142.2178  137.6798  159.8218 C.3     1  UNL1        0.0510
      5 C         141.7099  138.6270  160.8682 C.2     1  UNL1       -0.0044
      6 C         141.5351  140.0807  160.5425 C.2     1  UNL1        0.0689
      7 N         141.0193  140.7718  161.7698 N.2     1  UNL1       -0.2526
      8 C         140.8752  139.7452  162.8540 C.2     1  UNL1        0.0627
      9 C         140.4106  139.8462  164.2766 C.3     1  UNL1        0.0717
     10 C         140.3727  138.6216  165.1419 C.2     1  UNL1       -0.0198
     11 C         140.7995  137.2960  164.5846 C.2     1  UNL1       -0.0042
     12 C         141.2641  137.1950  163.1620 C.2     1  UNL1        0.0006
     13 C         141.3020  138.4196  162.2967 C.2     1  UNL1        0.0111
     14 H         143.2890  139.9879  157.8304 H       1  UNL1        0.1239
     15 O         140.2582  145.9761  158.0707 O.2     1  UNL1       -0.1730
     16 S         141.3440  144.9486  158.1937 S.O2    1  UNL1       -0.0100
     17 O         142.1621  146.1484  157.8177 O.2     1  UNL1       -0.1730
     18 C         142.7139  144.3378  158.1861 C.3     1  UNL1        0.1509
     19 C         142.8887  142.8839  158.5117 C.3     1  UNL1        0.0271
     20 C         141.6936  142.0411  158.8449 C.3     1  UNL1        0.0237
     21 C         140.3236  142.6520  158.8525 C.3     1  UNL1        0.0271
     22 C         140.1488  144.1057  158.5269 C.3     1  UNL1        0.1509
     23 C         143.0589  137.2392  157.4034 C.ar    1  UNL1        0.1318
     24 N         142.9483  135.7438  157.4396 N.ar    1  UNL1       -0.2298
     25 C         143.5876  135.2015  156.1958 C.ar    1  UNL1        0.0996
     26 C         144.0932  136.3618  155.3908 C.ar    1  UNL1        0.0927
     27 N         143.7664  137.6212  156.1371 N.ar    1  UNL1       -0.3386
     28 H         143.9790  138.5376  155.8469 H       1  UNL1        0.1672
     29 C         143.7013  133.7531  155.8224 C.ar    1  UNL1        0.0192
     30 C         142.9171  133.2136  154.6631 C.ar    1  UNL1        0.0015
     31 C         143.0307  131.7653  154.2898 C.ar    1  UNL1        0.0000
     32 C         143.9286  130.8565  155.0757 C.ar    1  UNL1        0.0000
     33 C         144.7129  131.3959  156.2350 C.ar    1  UNL1        0.0000
     34 C         144.5992  132.8442  156.6083 C.ar    1  UNL1        0.0015
@<TRIPOS>BOND
     1    15    16    2
     2    16    17    2
     3    16    18    1
     4    18    19    1
     5    19    20    1
     6    20     1    1
     7     1     2    1
     8     2     3    1
     9     3    23    1
    10    23    24   ar
    11    24    25   ar
    12    25    29    1
    13    29    30   ar
    14    30    31   ar
    15    31    32   ar
    16    32    33   ar
    17    33    34   ar
    18    25    26   ar
    19    26    27   ar
    20     3     4    1
    21     4     5    1
    22     5     6    2
    23     6     7    1
    24     7     8    2
    25     8     9    1
    26     9    10    1
    27    10    11    2
    28    11    12    1
    29    12    13    2
    30    20    21    1
    31    21    22    1
    32    22    16    1
    33     6     1    1
    34    13     8    1
    35    27    23   ar
    36    13     5    1
    37    34    29   ar
    38     2    14    1
    39    27    28    1
@<TRIPOS>MOLECULE
*****
 34 39 0 0 0
SMALL
GASTEIGER

@<TRIPOS>ATOM
      1 C         141.9370  143.2161  158.1452 C.3     1  UNL1        0.0948
      2 N         141.6527  143.1904  159.6178 N.3     1  UNL1       -0.2887
      3 C         140.7958  144.2557  160.2349 C.3     1  UNL1        0.1161
      4 C         140.2232  145.3467  159.3794 C.3     1  UNL1        0.0510
      5 C         140.5075  145.3724  157.9068 C.2     1  UNL1       -0.0044
      6 C         141.3644  144.3071  157.2897 C.2     1  UNL1        0.0689
      7 N         141.4709  144.5911  155.8207 N.2     1  UNL1       -0.2526
      8 C         140.6798  145.8319  155.5299 C.2     1  UNL1        0.0627
      9 C         140.4248  146.5844  154.2577 C.3     1  UNL1        0.0717
     10 C         139.5742  147.8198  154.2747 C.2     1  UNL1       -0.0198
     11 C         138.9788  148.3027  155.5640 C.2     1  UNL1       -0.0042
     12 C         139.2339  147.5501  156.8363 C.2     1  UNL1        0.0006
     13 C         140.0844  146.3147  156.8192 C.2     1  UNL1        0.0111
     14 H         142.5548  143.2264  160.0925 H       1  UNL1        0.1239
     15 O         144.4220  138.5894  155.8518 O.2     1  UNL1       -0.1730
     16 S         144.5078  140.0200  156.2941 S.O2    1  UNL1       -0.0100
     17 O         145.9065  139.8186  155.7909 O.2     1  UNL1       -0.1730
     18 C         145.0793  141.3808  156.5616 C.3     1  UNL1        0.1509
     19 C         144.2224  142.4462  157.1787 C.3     1  UNL1        0.0271
     20 C         142.7940  142.1508  157.5282 C.3     1  UNL1        0.0237
     21 C         142.2224  140.7899  157.2606 C.3     1  UNL1        0.0271
     22 C         143.0793  139.7246  156.6435 C.3     1  UNL1        0.1509
     23 C         140.5114  144.2300  161.7075 C.ar    1  UNL1        0.1318
     24 N         141.3005  143.4877  162.7449 N.ar    1  UNL1       -0.2298
     25 C         140.6649  143.7410  164.0798 C.ar    1  UNL1        0.0996
     26 C         139.4829  144.6398  163.8673 C.ar    1  UNL1        0.0927
     27 N         139.3881  144.9420  162.4011 N.ar    1  UNL1       -0.3386
     28 H         138.7080  145.5083  161.9698 H       1  UNL1        0.1672
     29 C         141.1296  143.1919  165.3961 C.ar    1  UNL1        0.0192
     30 C         140.1734  143.0945  166.5477 C.ar    1  UNL1        0.0015
     31 C         140.6381  142.5454  167.8640 C.ar    1  UNL1        0.0000
     32 C         142.0589  142.0937  168.0286 C.ar    1  UNL1        0.0000
     33 C         143.0151  142.1911  166.8769 C.ar    1  UNL1        0.0000
     34 C         142.5504  142.7402  165.5607 C.ar    1  UNL1        0.0015
@<TRIPOS>BOND
     1    15    16    2
     2    16    17    2
     3    16    18    1
     4    18    19    1
     5    19    20    1
     6    20     1    1
     7     1     2    1
     8     2     3    1
     9     3    23    1
    10    23    24   ar
    11    24    25   ar
    12    25    29    1
    13    29    30   ar
    14    30    31   ar
    15    31    32   ar
    16    32    33   ar
    17    33    34   ar
    18    25    26   ar
    19    26    27   ar
    20     3     4    1
    21     4     5    1
    22     5     6    2
    23     6     7    1
    24     7     8    2
    25     8     9    1
    26     9    10    1
    27    10    11    2
    28    11    12    1
    29    12    13    2
    30    20    21    1
    31    21    22    1
    32    22    16    1
    33     6     1    1
    34    13     8    1
    35    27    23   ar
    36    13     5    1
    37    34    29   ar
    38     2    14    1
    39    27    28    1
@<TRIPOS>MOLECULE
*****
 34 39 0 0 0
SMALL
GASTEIGER

@<TRIPOS>ATOM
      1 C         140.0447  143.4097  159.6035 C.3     1  UNL1        0.0948
      2 N         139.9308  144.4713  158.5499 N.3     1  UNL1       -0.2887
      3 C         140.4279  144.2048  157.1600 C.3     1  UNL1        0.1161
      4 C         141.0389  142.8768  156.8237 C.3     1  UNL1        0.0510
      5 C         141.1528  141.8152  157.8773 C.2     1  UNL1       -0.0044
      6 C         140.6557  142.0817  159.2672 C.2     1  UNL1        0.0689
      7 N         140.9002  140.8520  160.0906 N.2     1  UNL1       -0.2526
      8 C         141.5484  139.8255  159.2096 C.2     1  UNL1        0.0627
      9 C         142.0166  138.4256  159.4762 C.3     1  UNL1        0.0717
     10 C         142.6409  137.6211  158.3749 C.2     1  UNL1       -0.0198
     11 C         142.7971  138.2165  157.0070 C.2     1  UNL1       -0.0042
     12 C         142.3289  139.6163  156.7404 C.2     1  UNL1        0.0006
     13 C         141.7045  140.4208  157.8417 C.2     1  UNL1        0.0111
     14 H         140.4415  145.2842  158.8945 H       1  UNL1        0.1239
     15 O         137.4665  143.7693  164.7089 O.2     1  UNL1       -0.1730
     16 S         138.5533  144.2091  163.7733 S.O2    1  UNL1       -0.0100
     17 O         138.8784  145.0571  164.9671 O.2     1  UNL1       -0.1730
     18 C         139.7530  144.9434  163.2522 C.3     1  UNL1        0.1509
     19 C         140.2501  144.6769  161.8622 C.3     1  UNL1        0.0271
     20 C         139.5476  143.6762  160.9934 C.3     1  UNL1        0.0237
     21 C         138.3478  142.9419  161.5146 C.3     1  UNL1        0.0271
     22 C         137.8507  143.2083  162.9044 C.3     1  UNL1        0.1509
     23 C         140.3140  145.2664  156.1063 C.ar    1  UNL1        0.1318
     24 N         139.8554  146.6780  156.3230 N.ar    1  UNL1       -0.2298
     25 C         139.8966  147.3867  155.0016 C.ar    1  UNL1        0.0996
     26 C         140.3807  146.4131  153.9683 C.ar    1  UNL1        0.0927
     27 N         140.6386  145.1026  154.6510 N.ar    1  UNL1       -0.3386
     28 H         140.9639  144.2795  154.2197 H       1  UNL1        0.1672
     29 C         139.5199  148.8179  154.7565 C.ar    1  UNL1        0.0192
     30 C         138.7838  149.5906  155.8105 C.ar    1  UNL1        0.0015
     31 C         138.4071  151.0217  155.5656 C.ar    1  UNL1        0.0000
     32 C         138.7665  151.6800  154.2666 C.ar    1  UNL1        0.0000
     33 C         139.5027  150.9072  153.2126 C.ar    1  UNL1        0.0000
     34 C         139.8794  149.4762  153.4576 C.ar    1  UNL1        0.0015
@<TRIPOS>BOND
     1    15    16    2
     2    16    17    2
     3    16    18    1
     4    18    19    1
     5    19    20    1
     6    20     1    1
     7     1     2    1
     8     2     3    1
     9     3    23    1
    10    23    24   ar
    11    24    25   ar
    12    25    29    1
    13    29    30   ar
    14    30    31   ar
    15    31    32   ar
    16    32    33   ar
    17    33    34   ar
    18    25    26   ar
    19    26    27   ar
    20     3     4    1
    21     4     5    1
    22     5     6    2
    23     6     7    1
    24     7     8    2
    25     8     9    1
    26     9    10    1
    27    10    11    2
    28    11    12    1
    29    12    13    2
    30    20    21    1
    31    21    22    1
    32    22    16    1
    33     6     1    1
    34    13     8    1
    35    27    23   ar
    36    13     5    1
    37    34    29   ar
    38     2    14    1
    39    27    28    1
@<TRIPOS>MOLECULE
*****
 34 39 0 0 0
SMALL
GASTEIGER

@<TRIPOS>ATOM
      1 C         138.5578  139.1712  155.7503 C.3     1  UNL1        0.0948
      2 N         138.7889  139.5190  157.1910 N.3     1  UNL1       -0.2887
      3 C         139.7686  138.7275  158.0056 C.3     1  UNL1        0.1161
      4 C         140.5173  137.5884  157.3796 C.3     1  UNL1        0.0510
      5 C         140.2862  137.2407  155.9389 C.2     1  UNL1       -0.0044
      6 C         139.3064  138.0321  155.1242 C.2     1  UNL1        0.0689
      7 N         139.2878  137.4602  153.7377 N.2     1  UNL1       -0.2526
      8 C         140.2561  136.3154  153.6954 C.2     1  UNL1        0.0627
      9 C         140.6557  135.3790  152.5938 C.3     1  UNL1        0.0717
     10 C         141.6722  134.3068  152.8528 C.2     1  UNL1       -0.0198
     11 C         142.2893  134.1711  154.2132 C.2     1  UNL1       -0.0042
     12 C         141.8897  135.1076  155.3148 C.2     1  UNL1        0.0006
     13 C         140.8731  136.1797  155.0558 C.2     1  UNL1        0.0111
     14 H         137.8865  139.4433  157.6605 H       1  UNL1        0.1239
     15 O         134.2548  141.4076  152.6966 O.2     1  UNL1       -0.1730
     16 S         135.6183  141.5454  153.3063 S.O2    1  UNL1       -0.0100
     17 O         135.4808  142.8958  152.6678 O.2     1  UNL1       -0.1730
     18 C         136.9341  142.1522  153.6942 C.3     1  UNL1        0.1509
     19 C         137.9140  141.3608  154.5089 C.3     1  UNL1        0.0271
     20 C         137.5780  139.9627  154.9356 C.3     1  UNL1        0.0237
     21 C         136.2621  139.3558  154.5476 C.3     1  UNL1        0.0271
     22 C         135.2824  140.1472  153.7330 C.3     1  UNL1        0.1509
     23 C         139.9998  139.0752  159.4464 C.ar    1  UNL1        0.1318
     24 N         139.1715  138.6135  160.6086 N.ar    1  UNL1       -0.2298
     25 C         139.7596  139.1985  161.8584 C.ar    1  UNL1        0.0996
     26 C         140.9513  140.0219  161.4685 C.ar    1  UNL1        0.0927
     27 N         141.0997  139.9457  159.9779 N.ar    1  UNL1       -0.3386
     28 H         141.7967  140.3891  159.4423 H       1  UNL1        0.1672
     29 C         139.2461  138.9958  163.2531 C.ar    1  UNL1        0.0192
     30 C         139.2459  137.6242  163.8603 C.ar    1  UNL1        0.0015
     31 C         138.7325  137.4215  165.2550 C.ar    1  UNL1        0.0000
     32 C         138.2191  138.5903  166.0425 C.ar    1  UNL1        0.0000
     33 C         138.2192  139.9619  165.4353 C.ar    1  UNL1        0.0000
     34 C         138.7327  140.1647  164.0406 C.ar    1  UNL1        0.0015
@<TRIPOS>BOND
     1    15    16    2
     2    16    17    2
     3    16    18    1
     4    18    19    1
     5    19    20    1
     6    20     1    1
     7     1     2    1
     8     2     3    1
     9     3    23    1
    10    23    24   ar
    11    24    25   ar
    12    25    29    1
    13    29    30   ar
    14    30    31   ar
    15    31    32   ar
    16    32    33   ar
    17    33    34   ar
    18    25    26   ar
    19    26    27   ar
    20     3     4    1
    21     4     5    1
    22     5     6    2
    23     6     7    1
    24     7     8    2
    25     8     9    1
    26     9    10    1
    27    10    11    2
    28    11    12    1
    29    12    13    2
    30    20    21    1
    31    21    22    1
    32    22    16    1
    33     6     1    1
    34    13     8    1
    35    27    23   ar
    36    13     5    1
    37    34    29   ar
    38     2    14    1
    39    27    28    1
@<TRIPOS>MOLECULE
*****
 34 39 0 0 0
SMALL
GASTEIGER

@<TRIPOS>ATOM
      1 C         141.2153  141.9810  158.3655 C.3     1  UNL1        0.0948
      2 N         140.6411  142.9404  157.3655 N.3     1  UNL1       -0.2887
      3 C         140.1291  144.2763  157.8162 C.3     1  UNL1        0.1161
      4 C         140.1913  144.6529  159.2668 C.3     1  UNL1        0.0510
      5 C         140.7655  143.6936  160.2668 C.2     1  UNL1       -0.0044
      6 C         141.2775  142.3577  159.8161 C.2     1  UNL1        0.0689
      7 N         141.7852  141.6249  161.0225 N.2     1  UNL1       -0.2526
      8 C         141.5869  142.5079  162.2187 C.2     1  UNL1        0.0627
      9 C         141.8988  142.3130  163.6729 C.3     1  UNL1        0.0717
     10 C         141.5805  143.3966  164.6600 C.2     1  UNL1       -0.0198
     11 C         140.9503  144.6751  164.1929 C.2     1  UNL1       -0.0042
     12 C         140.6384  144.8701  162.7388 C.2     1  UNL1        0.0006
     13 C         140.9567  143.7865  161.7517 C.2     1  UNL1        0.0111
     14 H         139.8610  142.4631  156.9139 H       1  UNL1        0.1239
     15 O         143.9145  137.3772  156.2773 O.2     1  UNL1       -0.1730
     16 S         142.7515  137.9733  157.0134 S.O2    1  UNL1       -0.0100
     17 O         142.3729  136.5225  157.0591 O.2     1  UNL1       -0.1730
     18 C         141.4570  138.0655  157.7655 C.3     1  UNL1        0.1509
     19 C         140.9449  139.4015  158.2162 C.3     1  UNL1        0.0271
     20 C         141.7274  140.6451  157.9148 C.3     1  UNL1        0.0237
     21 C         143.0220  140.5529  157.1627 C.3     1  UNL1        0.0271
     22 C         143.5340  139.2170  156.7120 C.3     1  UNL1        0.1509
     23 C         139.5549  145.2357  156.8162 C.ar    1  UNL1        0.1318
     24 N         139.8698  146.6988  156.7166 N.ar    1  UNL1       -0.2298
     25 C         139.0745  147.2678  155.5792 C.ar    1  UNL1        0.0996
     26 C         138.2680  146.1562  154.9758 C.ar    1  UNL1        0.0927
     27 N         138.5649  144.9003  155.7403 N.ar    1  UNL1       -0.3386
     28 H         138.1780  144.0119  155.5665 H       1  UNL1        0.1672
     29 C         139.0840  148.6974  155.1249 C.ar    1  UNL1        0.0192
     30 C         139.6600  149.0553  153.7869 C.ar    1  UNL1        0.0015
     31 C         139.6695  150.4848  153.3326 C.ar    1  UNL1        0.0000
     32 C         139.1031  151.5563  154.2162 C.ar    1  UNL1        0.0000
     33 C         138.5271  151.1984  155.5542 C.ar    1  UNL1        0.0000
     34 C         138.5175  149.7689  156.0085 C.ar    1  UNL1        0.0015
@<TRIPOS>BOND
     1    15    16    2
     2    16    17    2
     3    16    18    1
     4    18    19    1
     5    19    20    1
     6    20     1    1
     7     1     2    1
     8     2     3    1
     9     3    23    1
    10    23    24   ar
    11    24    25   ar
    12    25    29    1
    13    29    30   ar
    14    30    31   ar
    15    31    32   ar
    16    32    33   ar
    17    33    34   ar
    18    25    26   ar
    19    26    27   ar
    20     3     4    1
    21     4     5    1
    22     5     6    2
    23     6     7    1
    24     7     8    2
    25     8     9    1
    26     9    10    1
    27    10    11    2
    28    11    12    1
    29    12    13    2
    30    20    21    1
    31    21    22    1
    32    22    16    1
    33     6     1    1
    34    13     8    1
    35    27    23   ar
    36    13     5    1
    37    34    29   ar
    38     2    14    1
    39    27    28    1
@<TRIPOS>MOLECULE
*****
 34 39 0 0 0
SMALL
GASTEIGER

@<TRIPOS>ATOM
      1 C         141.3153  139.3512  160.4405 C.3     1  UNL1        0.0948
      2 N         141.8613  138.2496  159.5813 N.3     1  UNL1       -0.2887
      3 C         142.4597  138.5687  158.2433 C.3     1  UNL1        0.1161
      4 C         142.5121  139.9893  157.7647 C.3     1  UNL1        0.0510
      5 C         141.9661  141.0909  158.6240 C.2     1  UNL1       -0.0044
      6 C         141.3677  140.7718  159.9619 C.2     1  UNL1        0.0689
      7 N         140.9117  142.0581  160.5843 N.2     1  UNL1       -0.2526
      8 C         141.2283  143.1722  159.6311 C.2     1  UNL1        0.0627
      9 C         141.0074  144.6537  159.7098 C.3     1  UNL1        0.0717
     10 C         141.4382  145.5374  158.5769 C.2     1  UNL1       -0.0198
     11 C         142.0899  144.9396  157.3654 C.2     1  UNL1       -0.0042
     12 C         142.3107  143.4581  157.2866 C.2     1  UNL1        0.0006
     13 C         141.8800  142.5744  158.4195 C.2     1  UNL1        0.0111
     14 H         141.0936  137.5994  159.4130 H       1  UNL1        0.1239
     15 O         139.6483  138.7921  165.8949 O.2     1  UNL1       -0.1730
     16 S         139.5201  138.3940  164.4544 S.O2    1  UNL1       -0.0100
     17 O         138.4750  137.5071  165.0638 O.2     1  UNL1       -0.1730
     18 C         139.0289  137.6880  163.2255 C.3     1  UNL1        0.1509
     19 C         139.6273  138.0070  161.8875 C.3     1  UNL1        0.0271
     20 C         140.7168  139.0321  161.7785 C.3     1  UNL1        0.0237
     21 C         141.2080  139.7382  163.0075 C.3     1  UNL1        0.0271
     22 C         140.6097  139.4192  164.3454 C.3     1  UNL1        0.1509
     23 C         143.0058  137.4671  157.3840 C.ar    1  UNL1        0.1318
     24 N         142.9740  136.0018  157.7032 N.ar    1  UNL1       -0.2298
     25 C         143.6280  135.2665  156.5711 C.ar    1  UNL1        0.0996
     26 C         144.0640  136.2774  155.5523 C.ar    1  UNL1        0.0927
     27 N         143.6794  137.6374  156.0546 N.ar    1  UNL1       -0.3386
     28 H         143.8408  138.4918  155.5929 H       1  UNL1        0.1672
     29 C         143.8135  133.7811  156.4748 C.ar    1  UNL1        0.0192
     30 C         144.4746  133.0337  157.5948 C.ar    1  UNL1        0.0015
     31 C         144.6601  131.5484  157.4985 C.ar    1  UNL1        0.0000
     32 C         144.1845  130.8104  156.2824 C.ar    1  UNL1        0.0000
     33 C         143.5234  131.5578  155.1624 C.ar    1  UNL1        0.0000
     34 C         143.3379  133.0432  155.2586 C.ar    1  UNL1        0.0015
@<TRIPOS>BOND
     1    15    16    2
     2    16    17    2
     3    16    18    1
     4    18    19    1
     5    19    20    1
     6    20     1    1
     7     1     2    1
     8     2     3    1
     9     3    23    1
    10    23    24   ar
    11    24    25   ar
    12    25    29    1
    13    29    30   ar
    14    30    31   ar
    15    31    32   ar
    16    32    33   ar
    17    33    34   ar
    18    25    26   ar
    19    26    27   ar
    20     3     4    1
    21     4     5    1
    22     5     6    2
    23     6     7    1
    24     7     8    2
    25     8     9    1
    26     9    10    1
    27    10    11    2
    28    11    12    1
    29    12    13    2
    30    20    21    1
    31    21    22    1
    32    22    16    1
    33     6     1    1
    34    13     8    1
    35    27    23   ar
    36    13     5    1
    37    34    29   ar
    38     2    14    1
    39    27    28    1
@<TRIPOS>MOLECULE
*****
 34 39 0 0 0
SMALL
GASTEIGER

@<TRIPOS>ATOM
      1 C         142.1748  141.3479  158.4484 C.3     1  UNL1        0.0948
      2 N         142.0177  140.0916  157.6440 N.3     1  UNL1       -0.2887
      3 C         142.4831  138.7799  158.2033 C.3     1  UNL1        0.1161
      4 C         143.1056  138.7245  159.5669 C.3     1  UNL1        0.0510
      5 C         143.2626  139.9808  160.3713 C.2     1  UNL1       -0.0044
      6 C         142.7972  141.2925  159.8120 C.2     1  UNL1        0.0689
      7 N         143.0814  142.3572  160.8297 N.2     1  UNL1       -0.2526
      8 C         143.7225  141.7035  162.0178 C.2     1  UNL1        0.0627
      9 C         144.2187  142.2560  163.3211 C.3     1  UNL1        0.0717
     10 C         144.8269  141.3396  164.3411 C.2     1  UNL1       -0.0198
     11 C         144.9389  139.8709  164.0578 C.2     1  UNL1       -0.0042
     12 C         144.4427  139.3185  162.7545 C.2     1  UNL1        0.0006
     13 C         143.8345  140.2348  161.7346 C.2     1  UNL1        0.0111
     14 H         142.5246  140.2359  156.7707 H       1  UNL1        0.1239
     15 O         139.7020  146.3058  156.9834 O.2     1  UNL1       -0.1730
     16 S         140.7784  145.2831  156.7707 S.O2    1  UNL1       -0.0100
     17 O         141.1417  146.2700  155.7010 O.2     1  UNL1       -0.1730
     18 C         141.9810  144.6031  156.1864 C.3     1  UNL1        0.1509
     19 C         142.4465  143.2913  156.7457 C.3     1  UNL1        0.0271
     20 C         141.7093  142.6596  157.8891 C.3     1  UNL1        0.0237
     21 C         140.5067  143.3397  158.4734 C.3     1  UNL1        0.0271
     22 C         140.0413  144.6514  157.9142 C.3     1  UNL1        0.1509
     23 C         142.3261  137.5235  157.3989 C.ar    1  UNL1        0.1318
     24 N         143.2168  136.3184  157.4633 N.ar    1  UNL1       -0.2298
     25 C         142.6920  135.3018  156.4931 C.ar    1  UNL1        0.0996
     26 C         141.4770  135.8787  155.8291 C.ar    1  UNL1        0.0927
     27 N         141.2509  137.2519  156.3889 N.ar    1  UNL1       -0.3386
     28 H         140.5243  137.8668  156.1376 H       1  UNL1        0.1672
     29 C         143.2792  133.9463  156.2327 C.ar    1  UNL1        0.0192
     30 C         142.8807  133.1792  155.0068 C.ar    1  UNL1        0.0015
     31 C         143.4678  131.8237  154.7463 C.ar    1  UNL1        0.0000
     32 C         144.4535  131.2353  155.7117 C.ar    1  UNL1        0.0000
     33 C         144.8521  132.0023  156.9376 C.ar    1  UNL1        0.0000
     34 C         144.2649  133.3578  157.1981 C.ar    1  UNL1        0.0015
@<TRIPOS>BOND
     1    15    16    2
     2    16    17    2
     3    16    18    1
     4    18    19    1
     5    19    20    1
     6    20     1    1
     7     1     2    1
     8     2     3    1
     9     3    23    1
    10    23    24   ar
    11    24    25   ar
    12    25    29    1
    13    29    30   ar
    14    30    31   ar
    15    31    32   ar
    16    32    33   ar
    17    33    34   ar
    18    25    26   ar
    19    26    27   ar
    20     3     4    1
    21     4     5    1
    22     5     6    2
    23     6     7    1
    24     7     8    2
    25     8     9    1
    26     9    10    1
    27    10    11    2
    28    11    12    1
    29    12    13    2
    30    20    21    1
    31    21    22    1
    32    22    16    1
    33     6     1    1
    34    13     8    1
    35    27    23   ar
    36    13     5    1
    37    34    29   ar
    38     2    14    1
    39    27    28    1
