@<TRIPOS>MOLECULE
*****
 27 30 0 0 0
SMALL
GASTEIGER

@<TRIPOS>ATOM
      1 N         142.1838  140.7334  164.3225 N.3     1  UNL1       -0.2697
      2 C         142.6295  140.5857  162.8979 C.3     1  UNL1        0.0723
      3 C         142.7864  139.2194  162.2990 C.3     1  UNL1        0.0174
      4 C         142.4976  138.0009  163.1246 C.3     1  UNL1        0.0032
      5 C         142.0518  138.1486  164.5493 C.3     1  UNL1        0.0205
      6 C         141.8949  139.5149  165.1482 C.3     1  UNL1        0.0801
      7 C         141.4492  139.6626  166.5728 C.ar    1  UNL1       -0.0078
      8 C         140.0023  139.9056  166.8846 C.ar    1  UNL1       -0.0029
      9 C         139.5566  140.0533  168.3092 C.ar    1  UNL1        0.0009
     10 C         140.5578  139.9580  169.4220 C.ar    1  UNL1        0.0140
     11 C         142.0048  139.7150  169.1103 C.ar    1  UNL1        0.0009
     12 C         142.4505  139.5673  167.6857 C.ar    1  UNL1       -0.0029
     13 C         140.1121  140.1057  170.8466 C.2     1  UNL1        0.0729
     14 O         140.6808  141.1999  171.7008 O.co2   1  UNL1       -0.5446
     15 O         139.0978  139.1594  171.4172 O.co2   1  UNL1       -0.5446
     16 C         142.0269  142.0997  164.9214 C.3     1  UNL1        0.0808
     17 C         143.6479  144.5159  164.1907 C.3     1  UNL1        0.0267
     18 C         142.2170  144.4122  163.7526 C.2     1  UNL1       -0.0390
     19 C         141.5967  145.5165  162.9492 C.2     1  UNL1       -0.0109
     20 C         140.1658  145.4128  162.5111 C.2     1  UNL1       -0.0051
     21 C         139.5454  146.5173  161.7077 C.3     1  UNL1        0.0326
     22 C         139.3553  144.2047  162.8765 C.2     1  UNL1        0.0737
     23 N         137.9329  143.8256  162.5883 N.2     1  UNL1       -0.2445
     24 C         137.6742  142.4870  163.2136 C.2     1  UNL1        0.0985
     25 C         138.9366  142.0387  163.8883 C.2     1  UNL1        0.0182
     26 C         139.9757  143.1003  163.6799 C.2     1  UNL1        0.0015
     27 C         141.4065  143.2040  164.1180 C.3     1  UNL1        0.0580
@<TRIPOS>UNITY_ATOM_ATTR
14 1
charge -1
@<TRIPOS>BOND
     1    17    18    1
     2    18    19    2
     3    19    20    1
     4    20    21    1
     5    20    22    2
     6    22    23    1
     7    23    24    2
     8    24    25    1
     9    25    26    2
    10    26    27    1
    11    27    16    1
    12    16     1    1
    13     1     2    1
    14     2     3    1
    15     3     4    1
    16     4     5    1
    17     5     6    1
    18     6     7    1
    19     7     8   ar
    20     8     9   ar
    21     9    10   ar
    22    10    13    1
    23    13    14   ar
    24    13    15   ar
    25    10    11   ar
    26    11    12   ar
    27    27    18    1
    28     6     1    1
    29    12     7   ar
    30    26    22    1
@<TRIPOS>MOLECULE
*****
 27 30 0 0 0
SMALL
GASTEIGER

@<TRIPOS>ATOM
      1 N         142.6652  142.1369  163.3417 N.3     1  UNL1       -0.2697
      2 C         143.0349  142.6146  161.9687 C.3     1  UNL1        0.0723
      3 C         144.4635  142.5590  161.5147 C.3     1  UNL1        0.0174
      4 C         145.5223  142.0256  162.4335 C.3     1  UNL1        0.0032
      5 C         145.1525  141.5479  163.8066 C.3     1  UNL1        0.0205
      6 C         143.7240  141.6035  164.2607 C.3     1  UNL1        0.0801
      7 C         143.3543  141.1258  165.6336 C.ar    1  UNL1       -0.0078
      8 C         143.1744  139.6597  165.8945 C.ar    1  UNL1       -0.0029
      9 C         142.8047  139.1820  167.2674 C.ar    1  UNL1        0.0009
     10 C         142.6149  140.1705  168.3796 C.ar    1  UNL1        0.0140
     11 C         142.7948  141.6366  168.1188 C.ar    1  UNL1        0.0009
     12 C         143.1645  142.1143  166.7458 C.ar    1  UNL1       -0.0029
     13 C         142.2452  139.6927  169.7526 C.2     1  UNL1        0.0729
     14 O         143.3158  139.4423  170.7730 O.co2   1  UNL1       -0.5446
     15 O         140.8052  139.4655  170.1052 O.co2   1  UNL1       -0.5446
     16 C         141.2367  142.1926  163.7957 C.3     1  UNL1        0.0808
     17 C         139.6477  142.1791  166.3403 C.3     1  UNL1        0.0267
     18 C         139.7467  140.9329  165.5113 C.2     1  UNL1       -0.0390
     19 C         139.0513  139.6800  165.9546 C.2     1  UNL1       -0.0109
     20 C         139.1503  138.4337  165.1256 C.2     1  UNL1       -0.0051
     21 C         138.4549  137.1808  165.5690 C.3     1  UNL1        0.0326
     22 C         139.9449  138.4405  163.8534 C.2     1  UNL1        0.0737
     23 N         140.2206  137.3727  162.8366 N.2     1  UNL1       -0.2445
     24 C         141.0865  137.9658  161.7649 C.2     1  UNL1        0.0985
     25 C         141.3459  139.4000  162.1193 C.2     1  UNL1        0.0182
     26 C         140.6403  139.6935  163.4101 C.2     1  UNL1        0.0015
     27 C         140.5412  140.9396  164.2390 C.3     1  UNL1        0.0580
@<TRIPOS>UNITY_ATOM_ATTR
14 1
charge -1
@<TRIPOS>BOND
     1    17    18    1
     2    18    19    2
     3    19    20    1
     4    20    21    1
     5    20    22    2
     6    22    23    1
     7    23    24    2
     8    24    25    1
     9    25    26    2
    10    26    27    1
    11    27    16    1
    12    16     1    1
    13     1     2    1
    14     2     3    1
    15     3     4    1
    16     4     5    1
    17     5     6    1
    18     6     7    1
    19     7     8   ar
    20     8     9   ar
    21     9    10   ar
    22    10    13    1
    23    13    14   ar
    24    13    15   ar
    25    10    11   ar
    26    11    12   ar
    27    27    18    1
    28     6     1    1
    29    12     7   ar
    30    26    22    1
@<TRIPOS>MOLECULE
*****
 27 30 0 0 0
SMALL
GASTEIGER

@<TRIPOS>ATOM
      1 N         141.5336  140.4890  168.3643 N.3     1  UNL1       -0.2697
      2 C         140.8489  140.0384  169.6205 C.3     1  UNL1        0.0723
      3 C         140.0651  141.0197  170.4409 C.3     1  UNL1        0.0174
      4 C         139.9661  142.4515  170.0050 C.3     1  UNL1        0.0032
      5 C         140.6508  142.9021  168.7486 C.3     1  UNL1        0.0205
      6 C         141.4345  141.9209  167.9283 C.3     1  UNL1        0.0801
      7 C         142.1192  142.3715  166.6721 C.ar    1  UNL1       -0.0078
      8 C         143.6023  142.5953  166.6651 C.ar    1  UNL1       -0.0029
      9 C         144.2870  143.0459  165.4089 C.ar    1  UNL1        0.0009
     10 C         143.4884  143.2728  164.1596 C.ar    1  UNL1        0.0140
     11 C         142.0052  143.0491  164.1665 C.ar    1  UNL1        0.0009
     12 C         141.3206  142.5984  165.4227 C.ar    1  UNL1       -0.0029
     13 C         144.1731  143.7235  162.9034 C.2     1  UNL1        0.0729
     14 O         144.2006  145.1799  162.5453 O.co2   1  UNL1       -0.5446
     15 O         144.8302  142.7179  162.0051 O.co2   1  UNL1       -0.5446
     16 C         142.3173  139.5078  167.5439 C.3     1  UNL1        0.0808
     17 C         144.3751  139.0227  165.4157 C.3     1  UNL1        0.0267
     18 C         142.9154  138.9458  165.0789 C.2     1  UNL1       -0.0390
     19 C         142.4846  138.6263  163.6782 C.2     1  UNL1       -0.0109
     20 C         141.0249  138.5494  163.3414 C.2     1  UNL1       -0.0051
     21 C         140.5942  138.2299  161.9405 C.3     1  UNL1        0.0326
     22 C         139.9960  138.7920  164.4056 C.2     1  UNL1        0.0737
     23 N         138.4964  138.7842  164.3721 N.2     1  UNL1       -0.2445
     24 C         138.0004  139.0989  165.7523 C.2     1  UNL1        0.0985
     25 C         139.1934  139.3011  166.6388 C.2     1  UNL1        0.0182
     26 C         140.4268  139.1114  165.8064 C.2     1  UNL1        0.0015
     27 C         141.8865  139.1883  166.1431 C.3     1  UNL1        0.0580
@<TRIPOS>UNITY_ATOM_ATTR
14 1
charge -1
@<TRIPOS>BOND
     1    17    18    1
     2    18    19    2
     3    19    20    1
     4    20    21    1
     5    20    22    2
     6    22    23    1
     7    23    24    2
     8    24    25    1
     9    25    26    2
    10    26    27    1
    11    27    16    1
    12    16     1    1
    13     1     2    1
    14     2     3    1
    15     3     4    1
    16     4     5    1
    17     5     6    1
    18     6     7    1
    19     7     8   ar
    20     8     9   ar
    21     9    10   ar
    22    10    13    1
    23    13    14   ar
    24    13    15   ar
    25    10    11   ar
    26    11    12   ar
    27    27    18    1
    28     6     1    1
    29    12     7   ar
    30    26    22    1
@<TRIPOS>MOLECULE
*****
 27 30 0 0 0
SMALL
GASTEIGER

@<TRIPOS>ATOM
      1 N         139.5614  140.8056  166.5145 N.3     1  UNL1       -0.2697
      2 C         139.6091  139.9213  167.7252 C.3     1  UNL1        0.0723
      3 C         140.7074  140.0885  168.7332 C.3     1  UNL1        0.0174
      4 C         141.7578  141.1398  168.5305 C.3     1  UNL1        0.0032
      5 C         141.7101  142.0241  167.3197 C.3     1  UNL1        0.0205
      6 C         140.6119  141.8570  166.3117 C.3     1  UNL1        0.0801
      7 C         140.5642  142.7413  165.1010 C.ar    1  UNL1       -0.0078
      8 C         139.6920  143.9615  165.0974 C.ar    1  UNL1       -0.0029
      9 C         139.6443  144.8457  163.8867 C.ar    1  UNL1        0.0009
     10 C         140.4689  144.5097  162.6796 C.ar    1  UNL1        0.0140
     11 C         141.3413  143.2895  162.6832 C.ar    1  UNL1        0.0009
     12 C         141.3889  142.4052  163.8939 C.ar    1  UNL1       -0.0029
     13 C         140.4212  145.3940  161.4690 C.2     1  UNL1        0.0729
     14 O         141.4894  145.2890  160.4210 O.co2   1  UNL1       -0.5446
     15 O         139.3056  146.3833  161.3061 O.co2   1  UNL1       -0.5446
     16 C         138.4633  140.6384  165.5065 C.3     1  UNL1        0.0808
     17 C         137.3294  142.0124  163.0927 C.3     1  UNL1        0.0267
     18 C         138.2108  140.8099  162.9264 C.2     1  UNL1       -0.0390
     19 C         138.5251  140.2945  161.5533 C.2     1  UNL1       -0.0109
     20 C         139.4064  139.0921  161.3871 C.2     1  UNL1       -0.0051
     21 C         139.7208  138.5767  160.0139 C.3     1  UNL1        0.0326
     22 C         139.9733  138.4052  162.5940 C.2     1  UNL1        0.0737
     23 N         140.8657  137.2085  162.7411 N.2     1  UNL1       -0.2445
     24 C         141.1028  136.9844  164.2052 C.2     1  UNL1        0.0985
     25 C         140.3570  138.0425  164.9629 C.2     1  UNL1        0.0182
     26 C         139.6590  138.9206  163.9671 C.2     1  UNL1        0.0015
     27 C         138.7777  140.1230  164.1333 C.3     1  UNL1        0.0580
@<TRIPOS>UNITY_ATOM_ATTR
14 1
charge -1
@<TRIPOS>BOND
     1    17    18    1
     2    18    19    2
     3    19    20    1
     4    20    21    1
     5    20    22    2
     6    22    23    1
     7    23    24    2
     8    24    25    1
     9    25    26    2
    10    26    27    1
    11    27    16    1
    12    16     1    1
    13     1     2    1
    14     2     3    1
    15     3     4    1
    16     4     5    1
    17     5     6    1
    18     6     7    1
    19     7     8   ar
    20     8     9   ar
    21     9    10   ar
    22    10    13    1
    23    13    14   ar
    24    13    15   ar
    25    10    11   ar
    26    11    12   ar
    27    27    18    1
    28     6     1    1
    29    12     7   ar
    30    26    22    1
@<TRIPOS>MOLECULE
*****
 27 30 0 0 0
SMALL
GASTEIGER

@<TRIPOS>ATOM
      1 N         142.5074  140.7815  164.8711 N.3     1  UNL1       -0.2697
      2 C         143.1996  140.5519  163.5603 C.3     1  UNL1        0.0723
      3 C         144.3338  141.4416  163.1451 C.3     1  UNL1        0.0174
      4 C         144.7756  142.5608  164.0407 C.3     1  UNL1        0.0032
      5 C         144.0834  142.7904  165.3515 C.3     1  UNL1        0.0205
      6 C         142.9493  141.9008  165.7667 C.3     1  UNL1        0.0801
      7 C         142.2571  142.1304  167.0775 C.ar    1  UNL1       -0.0078
      8 C         142.8833  141.6458  168.3513 C.ar    1  UNL1       -0.0029
      9 C         142.1911  141.8754  169.6621 C.ar    1  UNL1        0.0009
     10 C         140.8727  142.5897  169.6989 C.ar    1  UNL1        0.0140
     11 C         140.2464  143.0744  168.4250 C.ar    1  UNL1        0.0009
     12 C         140.9386  142.8447  167.1143 C.ar    1  UNL1       -0.0029
     13 C         140.1805  142.8193  171.0097 C.2     1  UNL1        0.0729
     14 O         139.1157  143.8700  171.1216 O.co2   1  UNL1       -0.5446
     15 O         140.5529  141.9984  172.2085 O.co2   1  UNL1       -0.5446
     16 C         141.3734  139.8919  165.2863 C.3     1  UNL1        0.0808
     17 C         141.3681  137.1217  164.1350 C.3     1  UNL1        0.0267
     18 C         140.3233  138.1115  163.7123 C.2     1  UNL1       -0.0390
     19 C         139.2760  137.7162  162.7140 C.2     1  UNL1       -0.0109
     20 C         138.2311  138.7060  162.2912 C.2     1  UNL1       -0.0051
     21 C         137.1837  138.3106  161.2929 C.3     1  UNL1        0.0326
     22 C         138.2337  140.0911  162.8669 C.2     1  UNL1        0.0737
     23 N         137.3378  141.2730  162.6424 N.2     1  UNL1       -0.2445
     24 C         137.8315  142.3988  163.5019 C.2     1  UNL1        0.0985
     25 C         139.0326  141.9127  164.2577 C.2     1  UNL1        0.0182
     26 C         139.2812  140.4864  163.8652 C.2     1  UNL1        0.0015
     27 C         140.3259  139.4966  164.2879 C.3     1  UNL1        0.0580
@<TRIPOS>UNITY_ATOM_ATTR
14 1
charge -1
@<TRIPOS>BOND
     1    17    18    1
     2    18    19    2
     3    19    20    1
     4    20    21    1
     5    20    22    2
     6    22    23    1
     7    23    24    2
     8    24    25    1
     9    25    26    2
    10    26    27    1
    11    27    16    1
    12    16     1    1
    13     1     2    1
    14     2     3    1
    15     3     4    1
    16     4     5    1
    17     5     6    1
    18     6     7    1
    19     7     8   ar
    20     8     9   ar
    21     9    10   ar
    22    10    13    1
    23    13    14   ar
    24    13    15   ar
    25    10    11   ar
    26    11    12   ar
    27    27    18    1
    28     6     1    1
    29    12     7   ar
    30    26    22    1
@<TRIPOS>MOLECULE
*****
 27 30 0 0 0
SMALL
GASTEIGER

@<TRIPOS>ATOM
      1 N         140.6457  141.1705  168.0872 N.3     1  UNL1       -0.2697
      2 C         139.9623  140.6721  169.3260 C.3     1  UNL1        0.0723
      3 C         140.6951  139.7721  170.2763 C.3     1  UNL1        0.0174
      4 C         142.1112  139.3706  169.9880 C.3     1  UNL1        0.0032
      5 C         142.7947  139.8690  168.7491 C.3     1  UNL1        0.0205
      6 C         142.0619  140.7690  167.7988 C.3     1  UNL1        0.0801
      7 C         142.7454  141.2673  166.5600 C.ar    1  UNL1       -0.0078
      8 C         143.3708  142.6306  166.5454 C.ar    1  UNL1       -0.0029
      9 C         144.0543  143.1289  165.3067 C.ar    1  UNL1        0.0009
     10 C         144.1123  142.2640  164.0825 C.ar    1  UNL1        0.0140
     11 C         143.4868  140.9007  164.0971 C.ar    1  UNL1        0.0009
     12 C         142.8033  140.4023  165.3359 C.ar    1  UNL1       -0.0029
     13 C         144.7957  142.7624  162.8438 C.2     1  UNL1        0.0729
     14 O         144.5538  144.1636  162.3659 O.co2   1  UNL1       -0.5446
     15 O         145.7210  141.8598  162.0829 O.co2   1  UNL1       -0.5446
     16 C         139.9130  142.0704  167.1369 C.3     1  UNL1        0.0808
     17 C         140.3693  144.0266  164.9087 C.3     1  UNL1        0.0267
     18 C         139.9328  142.6253  164.5988 C.2     1  UNL1       -0.0390
     19 C         139.7246  142.2022  163.1750 C.2     1  UNL1       -0.0109
     20 C         139.2881  140.8008  162.8651 C.2     1  UNL1       -0.0051
     21 C         139.0799  140.3777  161.4411 C.3     1  UNL1        0.0326
     22 C         139.0600  139.8228  163.9792 C.2     1  UNL1        0.0737
     23 N         138.6307  138.3855  163.9808 N.2     1  UNL1       -0.2445
     24 C         138.5737  137.9204  165.4057 C.2     1  UNL1        0.0985
     25 C         138.9677  139.0702  166.2848 C.2     1  UNL1        0.0182
     26 C         139.2683  140.2459  165.4032 C.2     1  UNL1        0.0015
     27 C         139.7047  141.6472  165.7130 C.3     1  UNL1        0.0580
@<TRIPOS>UNITY_ATOM_ATTR
14 1
charge -1
@<TRIPOS>BOND
     1    17    18    1
     2    18    19    2
     3    19    20    1
     4    20    21    1
     5    20    22    2
     6    22    23    1
     7    23    24    2
     8    24    25    1
     9    25    26    2
    10    26    27    1
    11    27    16    1
    12    16     1    1
    13     1     2    1
    14     2     3    1
    15     3     4    1
    16     4     5    1
    17     5     6    1
    18     6     7    1
    19     7     8   ar
    20     8     9   ar
    21     9    10   ar
    22    10    13    1
    23    13    14   ar
    24    13    15   ar
    25    10    11   ar
    26    11    12   ar
    27    27    18    1
    28     6     1    1
    29    12     7   ar
    30    26    22    1
@<TRIPOS>MOLECULE
*****
 27 30 0 0 0
SMALL
GASTEIGER

@<TRIPOS>ATOM
      1 N         139.7024  140.9485  167.3934 N.3     1  UNL1       -0.2697
      2 C         139.5778  140.1935  168.6835 C.3     1  UNL1        0.0723
      3 C         140.0633  140.8090  169.9625 C.3     1  UNL1        0.0174
      4 C         140.6732  142.1792  169.9513 C.3     1  UNL1        0.0032
      5 C         140.7977  142.9342  168.6610 C.3     1  UNL1        0.0205
      6 C         140.3123  142.3189  167.3821 C.3     1  UNL1        0.0801
      7 C         140.4369  143.0739  166.0920 C.ar    1  UNL1       -0.0078
      8 C         139.2765  143.8709  165.5744 C.ar    1  UNL1       -0.0029
      9 C         139.4010  144.6259  164.2842 C.ar    1  UNL1        0.0009
     10 C         140.6861  144.5838  163.5117 C.ar    1  UNL1        0.0140
     11 C         141.8466  143.7867  164.0293 C.ar    1  UNL1        0.0009
     12 C         141.7220  143.0317  165.3194 C.ar    1  UNL1       -0.0029
     13 C         140.8106  145.3388  162.2216 C.2     1  UNL1        0.0729
     14 O         139.8766  146.4741  161.9239 O.co2   1  UNL1       -0.5446
     15 O         141.8691  144.9585  161.2292 O.co2   1  UNL1       -0.5446
     16 C         139.2170  140.3331  166.1144 C.3     1  UNL1        0.0808
     17 C         138.4012  141.0997  163.3312 C.3     1  UNL1        0.0267
     18 C         139.7594  140.5137  163.5800 C.2     1  UNL1       -0.0390
     19 C         140.7096  140.3109  162.4373 C.2     1  UNL1       -0.0109
     20 C         142.0678  139.7249  162.6862 C.2     1  UNL1       -0.0051
     21 C         143.0181  139.5222  161.5433 C.3     1  UNL1        0.0326
     22 C         142.4757  139.3416  164.0778 C.2     1  UNL1        0.0737
     23 N         143.7391  138.7467  164.6255 N.2     1  UNL1       -0.2445
     24 C         143.5697  138.5818  166.1067 C.2     1  UNL1        0.0985
     25 C         142.2016  139.0748  166.4745 C.2     1  UNL1        0.0182
     26 C         141.5254  139.5444  165.2206 C.2     1  UNL1        0.0015
     27 C         140.1673  140.1304  164.9717 C.3     1  UNL1        0.0580
@<TRIPOS>UNITY_ATOM_ATTR
14 1
charge -1
@<TRIPOS>BOND
     1    17    18    1
     2    18    19    2
     3    19    20    1
     4    20    21    1
     5    20    22    2
     6    22    23    1
     7    23    24    2
     8    24    25    1
     9    25    26    2
    10    26    27    1
    11    27    16    1
    12    16     1    1
    13     1     2    1
    14     2     3    1
    15     3     4    1
    16     4     5    1
    17     5     6    1
    18     6     7    1
    19     7     8   ar
    20     8     9   ar
    21     9    10   ar
    22    10    13    1
    23    13    14   ar
    24    13    15   ar
    25    10    11   ar
    26    11    12   ar
    27    27    18    1
    28     6     1    1
    29    12     7   ar
    30    26    22    1
@<TRIPOS>MOLECULE
*****
 27 30 0 0 0
SMALL
GASTEIGER

@<TRIPOS>ATOM
      1 N         140.2730  142.3209  167.6482 N.3     1  UNL1       -0.2697
      2 C         140.4201  143.0382  168.9573 C.3     1  UNL1        0.0723
      3 C         140.1283  142.3213  170.2422 C.3     1  UNL1        0.0174
      4 C         139.6895  140.8872  170.2180 C.3     1  UNL1        0.0032
      5 C         139.5425  140.1699  168.9088 C.3     1  UNL1        0.0205
      6 C         139.8342  140.8867  167.6239 C.3     1  UNL1        0.0801
      7 C         139.6872  140.1694  166.3148 C.ar    1  UNL1       -0.0078
      8 C         138.4498  140.3616  165.4891 C.ar    1  UNL1       -0.0029
      9 C         138.3027  139.6442  164.1800 C.ar    1  UNL1        0.0009
     10 C         139.3931  138.7348  163.6965 C.ar    1  UNL1        0.0140
     11 C         140.6306  138.5426  164.5222 C.ar    1  UNL1        0.0009
     12 C         140.7777  139.2599  165.8313 C.ar    1  UNL1       -0.0029
     13 C         139.2461  138.0174  162.3874 C.2     1  UNL1        0.0729
     14 O         140.4609  137.5023  161.6739 O.co2   1  UNL1       -0.5446
     15 O         137.8844  137.8152  161.7917 O.co2   1  UNL1       -0.5446
     16 C         140.5648  143.0378  166.3633 C.3     1  UNL1        0.0808
     17 C         143.2788  142.3635  167.4491 C.3     1  UNL1        0.0267
     18 C         142.9910  142.1881  165.9874 C.2     1  UNL1       -0.0390
     19 C         144.0602  141.6756  165.0687 C.2     1  UNL1       -0.0109
     20 C         143.7723  141.5001  163.6070 C.2     1  UNL1       -0.0051
     21 C         144.8416  140.9875  162.6883 C.3     1  UNL1        0.0326
     22 C         142.4153  141.8373  163.0641 C.2     1  UNL1        0.0737
     23 N         141.8425  141.7677  161.6796 N.2     1  UNL1       -0.2445
     24 C         140.4193  142.2372  161.7426 C.2     1  UNL1        0.0985
     25 C         140.1125  142.5970  163.1662 C.2     1  UNL1        0.0182
     26 C         141.3461  142.3498  163.9829 C.2     1  UNL1        0.0015
     27 C         141.6340  142.5252  165.4445 C.3     1  UNL1        0.0580
@<TRIPOS>UNITY_ATOM_ATTR
14 1
charge -1
@<TRIPOS>BOND
     1    17    18    1
     2    18    19    2
     3    19    20    1
     4    20    21    1
     5    20    22    2
     6    22    23    1
     7    23    24    2
     8    24    25    1
     9    25    26    2
    10    26    27    1
    11    27    16    1
    12    16     1    1
    13     1     2    1
    14     2     3    1
    15     3     4    1
    16     4     5    1
    17     5     6    1
    18     6     7    1
    19     7     8   ar
    20     8     9   ar
    21     9    10   ar
    22    10    13    1
    23    13    14   ar
    24    13    15   ar
    25    10    11   ar
    26    11    12   ar
    27    27    18    1
    28     6     1    1
    29    12     7   ar
    30    26    22    1
@<TRIPOS>MOLECULE
*****
 27 30 0 0 0
SMALL
GASTEIGER

@<TRIPOS>ATOM
      1 N         140.3286  140.7096  167.8144 N.3     1  UNL1       -0.2697
      2 C         139.5869  140.6071  169.1141 C.3     1  UNL1        0.0723
      3 C         140.2418  139.9682  170.3029 C.3     1  UNL1        0.0174
      4 C         141.6382  139.4319  170.1919 C.3     1  UNL1        0.0032
      5 C         142.3799  139.5345  168.8920 C.3     1  UNL1        0.0205
      6 C         141.7251  140.1733  167.7033 C.3     1  UNL1        0.0801
      7 C         142.4668  140.2759  166.4035 C.ar    1  UNL1       -0.0078
      8 C         142.5387  139.0918  165.4856 C.ar    1  UNL1       -0.0029
      9 C         143.2803  139.1944  164.1859 C.ar    1  UNL1        0.0009
     10 C         143.9501  140.4811  163.8041 C.ar    1  UNL1        0.0140
     11 C         143.8783  141.6652  164.7220 C.ar    1  UNL1        0.0009
     12 C         143.1366  141.5627  166.0218 C.ar    1  UNL1       -0.0029
     13 C         144.6918  140.5836  162.5043 C.2     1  UNL1        0.0729
     14 O         145.6673  141.7017  162.2837 O.co2   1  UNL1       -0.5446
     15 O         144.4582  139.5683  161.4253 O.co2   1  UNL1       -0.5446
     16 C         139.6738  141.3484  166.6256 C.3     1  UNL1        0.0808
     17 C         138.3125  138.6799  166.7845 C.3     1  UNL1        0.0267
     18 C         138.7612  139.2150  165.4570 C.2     1  UNL1       -0.0390
     19 C         138.5293  138.4160  164.2090 C.2     1  UNL1       -0.0109
     20 C         138.9780  138.9511  162.8814 C.2     1  UNL1       -0.0051
     21 C         138.7461  138.1519  161.6334 C.3     1  UNL1        0.0326
     22 C         139.6587  140.2854  162.8020 C.2     1  UNL1        0.0737
     23 N         140.2072  141.0650  161.6438 N.2     1  UNL1       -0.2445
     24 C         140.7781  142.3459  162.1761 C.2     1  UNL1        0.0985
     25 C         140.5825  142.3580  163.6632 C.2     1  UNL1        0.0182
     26 C         139.8906  141.0845  164.0501 C.2     1  UNL1        0.0015
     27 C         139.4419  140.5493  165.3776 C.3     1  UNL1        0.0580
@<TRIPOS>UNITY_ATOM_ATTR
14 1
charge -1
@<TRIPOS>BOND
     1    17    18    1
     2    18    19    2
     3    19    20    1
     4    20    21    1
     5    20    22    2
     6    22    23    1
     7    23    24    2
     8    24    25    1
     9    25    26    2
    10    26    27    1
    11    27    16    1
    12    16     1    1
    13     1     2    1
    14     2     3    1
    15     3     4    1
    16     4     5    1
    17     5     6    1
    18     6     7    1
    19     7     8   ar
    20     8     9   ar
    21     9    10   ar
    22    10    13    1
    23    13    14   ar
    24    13    15   ar
    25    10    11   ar
    26    11    12   ar
    27    27    18    1
    28     6     1    1
    29    12     7   ar
    30    26    22    1
