@<TRIPOS>MOLECULE
*****
 24 27 0 0 0
SMALL
GASTEIGER

@<TRIPOS>ATOM
      1 N         140.4654  139.6628  166.8352 N.ar    1  UNL1       -0.3100
      2 C         141.7241  139.1568  166.1952 C.ar    1  UNL1        0.1317
      3 N         142.8174  139.2051  167.2210 N.ar    1  UNL1       -0.2300
      4 C         142.2344  139.7409  168.4951 C.ar    1  UNL1        0.0984
      5 C         142.8394  140.0077  169.8414 C.ar    1  UNL1        0.0206
      6 C         141.9907  140.5574  170.9493 C.ar    1  UNL1        0.0016
      7 C         140.5371  140.8402  170.7109 C.ar    1  UNL1        0.0016
      8 C         139.9321  140.5734  169.3645 C.ar    1  UNL1        0.0188
      9 C         140.7808  140.0237  168.2566 C.ar    1  UNL1        0.0789
     10 C         141.8648  138.6854  164.7782 C.3     1  UNL1        0.1199
     11 C         141.2248  137.3986  164.3488 C.3     1  UNL1        0.0871
     12 N         141.3655  136.9272  162.9318 N.3     1  UNL1       -0.2957
     13 C         142.1462  137.7425  161.9441 C.3     1  UNL1        0.0804
     14 C         142.7863  139.0293  162.3735 C.3     1  UNL1        0.0750
     15 S         142.6456  139.5008  163.7905 S.3     1  UNL1       -0.1306
     16 H         140.4213  136.8355  162.5569 H       1  UNL1        0.1233
     17 C         139.1263  139.7861  166.1706 C.3     1  UNL1        0.1339
     18 C         137.8837  144.5876  162.7941 C.3     1  UNL1        0.0310
     19 C         138.1944  143.3872  163.6382 C.ar    1  UNL1       -0.0219
     20 C         139.1925  143.4923  164.7530 C.ar    1  UNL1       -0.0045
     21 C         139.5031  142.2919  165.5971 C.ar    1  UNL1       -0.0027
     22 C         138.8157  140.9864  165.3265 C.ar    1  UNL1        0.0004
     23 C         137.8176  140.8814  164.2117 C.ar    1  UNL1       -0.0027
     24 C         137.5069  142.0818  163.3676 C.ar    1  UNL1       -0.0045
@<TRIPOS>BOND
     1    18    19    1
     2    19    20   ar
     3    20    21   ar
     4    21    22   ar
     5    22    17    1
     6    17     1    1
     7     1     2   ar
     8     2    10    1
     9    10    11    1
    10    11    12    1
    11    12    13    1
    12    13    14    1
    13    14    15    1
    14     2     3   ar
    15     3     4   ar
    16     4     5   ar
    17     5     6   ar
    18     6     7   ar
    19     7     8   ar
    20     8     9   ar
    21    22    23   ar
    22    23    24   ar
    23    24    19   ar
    24     9     1   ar
    25    15    10    1
    26     9     4   ar
    27    12    16    1
@<TRIPOS>MOLECULE
*****
 24 27 0 0 0
SMALL
GASTEIGER

@<TRIPOS>ATOM
      1 N         141.3809  141.6794  163.9642 N.ar    1  UNL1       -0.3100
      2 C         140.9482  140.8427  162.7969 C.ar    1  UNL1        0.1317
      3 N         139.5657  141.2731  162.4053 N.ar    1  UNL1       -0.2300
      4 C         139.1439  142.3758  163.3306 C.ar    1  UNL1        0.0984
      5 C         137.8832  143.1837  163.4203 C.ar    1  UNL1        0.0206
      6 C         137.7445  144.2426  164.4735 C.ar    1  UNL1        0.0016
      7 C         138.8663  144.4937  165.4370 C.ar    1  UNL1        0.0016
      8 C         140.1270  143.6859  165.3473 C.ar    1  UNL1        0.0188
      9 C         140.2658  142.6269  164.2941 C.ar    1  UNL1        0.0789
     10 C         141.7562  139.7649  162.1370 C.3     1  UNL1        0.1199
     11 C         141.4285  138.3226  162.3867 C.3     1  UNL1        0.0871
     12 N         142.2365  137.2448  161.7268 N.3     1  UNL1       -0.2957
     13 C         143.3721  137.6092  160.8172 C.3     1  UNL1        0.0804
     14 C         143.6998  139.0515  160.5675 C.3     1  UNL1        0.0750
     15 S         142.8918  140.1293  161.2274 S.3     1  UNL1       -0.1306
     16 H         141.5860  136.6847  161.1759 H       1  UNL1        0.1233
     17 C         142.6975  141.5852  164.6766 C.3     1  UNL1        0.1339
     18 C         142.8611  140.1613  170.5029 C.3     1  UNL1        0.0310
     19 C         142.8202  140.5173  169.0464 C.ar    1  UNL1       -0.0219
     20 C         142.5563  139.4541  168.0216 C.ar    1  UNL1       -0.0045
     21 C         142.5155  139.8101  166.5650 C.ar    1  UNL1       -0.0027
     22 C         142.7384  141.2293  166.1332 C.ar    1  UNL1        0.0004
     23 C         143.0022  142.2924  167.1580 C.ar    1  UNL1       -0.0027
     24 C         143.0431  141.9363  168.6145 C.ar    1  UNL1       -0.0045
@<TRIPOS>BOND
     1    18    19    1
     2    19    20   ar
     3    20    21   ar
     4    21    22   ar
     5    22    17    1
     6    17     1    1
     7     1     2   ar
     8     2    10    1
     9    10    11    1
    10    11    12    1
    11    12    13    1
    12    13    14    1
    13    14    15    1
    14     2     3   ar
    15     3     4   ar
    16     4     5   ar
    17     5     6   ar
    18     6     7   ar
    19     7     8   ar
    20     8     9   ar
    21    22    23   ar
    22    23    24   ar
    23    24    19   ar
    24     9     1   ar
    25    15    10    1
    26     9     4   ar
    27    12    16    1
@<TRIPOS>MOLECULE
*****
 24 27 0 0 0
SMALL
GASTEIGER

@<TRIPOS>ATOM
      1 N         141.6246  141.3060  163.7360 N.ar    1  UNL1       -0.3100
      2 C         140.6750  141.8901  162.7324 C.ar    1  UNL1        0.1317
      3 N         141.0191  143.3397  162.5578 N.ar    1  UNL1       -0.2300
      4 C         142.1813  143.6514  163.4534 C.ar    1  UNL1        0.0984
      5 C         142.9471  144.9173  163.6999 C.ar    1  UNL1        0.0206
      6 C         144.0872  144.9264  164.6746 C.ar    1  UNL1        0.0016
      7 C         144.4614  143.6695  165.4028 C.ar    1  UNL1        0.0016
      8 C         143.6956  142.4036  165.1563 C.ar    1  UNL1        0.0188
      9 C         142.5555  142.3945  164.1816 C.ar    1  UNL1        0.0789
     10 C         139.5746  141.1540  162.0273 C.3     1  UNL1        0.1199
     11 C         138.1676  141.2372  162.5407 C.3     1  UNL1        0.0871
     12 N         137.0672  140.5011  161.8356 N.3     1  UNL1       -0.2957
     13 C         137.3737  139.6817  160.6171 C.3     1  UNL1        0.0804
     14 C         138.7807  139.5985  160.1038 C.3     1  UNL1        0.0750
     15 S         139.8811  140.3347  160.8089 S.3     1  UNL1       -0.1306
     16 H         136.3784  141.1992  161.5553 H       1  UNL1        0.1233
     17 C         141.6405  139.8832  164.2106 C.3     1  UNL1        0.1339
     18 C         137.0303  137.7291  167.3896 C.3     1  UNL1        0.0310
     19 C         138.1828  138.2677  166.5949 C.ar    1  UNL1       -0.0219
     20 C         138.6601  137.5358  165.3756 C.ar    1  UNL1       -0.0045
     21 C         139.8126  138.0744  164.5809 C.ar    1  UNL1       -0.0027
     22 C         140.4880  139.3447  165.0054 C.ar    1  UNL1        0.0004
     23 C         140.0107  140.0765  166.2247 C.ar    1  UNL1       -0.0027
     24 C         138.8581  139.5380  167.0194 C.ar    1  UNL1       -0.0045
@<TRIPOS>BOND
     1    18    19    1
     2    19    20   ar
     3    20    21   ar
     4    21    22   ar
     5    22    17    1
     6    17     1    1
     7     1     2   ar
     8     2    10    1
     9    10    11    1
    10    11    12    1
    11    12    13    1
    12    13    14    1
    13    14    15    1
    14     2     3   ar
    15     3     4   ar
    16     4     5   ar
    17     5     6   ar
    18     6     7   ar
    19     7     8   ar
    20     8     9   ar
    21    22    23   ar
    22    23    24   ar
    23    24    19   ar
    24     9     1   ar
    25    15    10    1
    26     9     4   ar
    27    12    16    1
@<TRIPOS>MOLECULE
*****
 24 27 0 0 0
SMALL
GASTEIGER

@<TRIPOS>ATOM
      1 N         140.7276  141.3789  166.4927 N.ar    1  UNL1       -0.3100
      2 C         141.7426  140.3471  166.0991 C.ar    1  UNL1        0.1317
      3 N         142.8069  140.3172  167.1557 N.ar    1  UNL1       -0.2300
      4 C         142.4496  141.3305  168.2024 C.ar    1  UNL1        0.0984
      5 C         143.1284  141.7405  169.4755 C.ar    1  UNL1        0.0206
      6 C         142.5221  142.8067  170.3390 C.ar    1  UNL1        0.0016
      7 C         141.2370  143.4629  169.9292 C.ar    1  UNL1        0.0016
      8 C         140.5582  143.0529  168.6560 C.ar    1  UNL1        0.0188
      9 C         141.1645  141.9867  167.7926 C.ar    1  UNL1        0.0789
     10 C         141.7007  139.4948  164.8655 C.3     1  UNL1        0.1199
     11 C         142.2386  140.0244  163.5693 C.3     1  UNL1        0.0871
     12 N         142.1968  139.1721  162.3357 N.3     1  UNL1       -0.2957
     13 C         141.6170  137.7901  162.3982 C.3     1  UNL1        0.0804
     14 C         141.0791  137.2605  163.6944 C.3     1  UNL1        0.0750
     15 S         141.1210  138.1128  164.9280 S.3     1  UNL1       -0.1306
     16 H         143.1594  139.0733  162.0133 H       1  UNL1        0.1233
     17 C         139.4924  141.7396  165.7218 C.3     1  UNL1        0.1339
     18 C         139.6032  146.3221  161.8504 C.3     1  UNL1        0.0310
     19 C         139.5755  145.1765  162.8183 C.ar    1  UNL1       -0.0219
     20 C         138.2927  144.4428  163.0754 C.ar    1  UNL1       -0.0045
     21 C         138.2650  143.2972  164.0432 C.ar    1  UNL1       -0.0027
     22 C         139.5201  142.8852  164.7540 C.ar    1  UNL1        0.0004
     23 C         140.8029  143.6190  164.4969 C.ar    1  UNL1       -0.0027
     24 C         140.8306  144.7646  163.5290 C.ar    1  UNL1       -0.0045
@<TRIPOS>BOND
     1    18    19    1
     2    19    20   ar
     3    20    21   ar
     4    21    22   ar
     5    22    17    1
     6    17     1    1
     7     1     2   ar
     8     2    10    1
     9    10    11    1
    10    11    12    1
    11    12    13    1
    12    13    14    1
    13    14    15    1
    14     2     3   ar
    15     3     4   ar
    16     4     5   ar
    17     5     6   ar
    18     6     7   ar
    19     7     8   ar
    20     8     9   ar
    21    22    23   ar
    22    23    24   ar
    23    24    19   ar
    24     9     1   ar
    25    15    10    1
    26     9     4   ar
    27    12    16    1
@<TRIPOS>MOLECULE
*****
 24 27 0 0 0
SMALL
GASTEIGER

@<TRIPOS>ATOM
      1 N         142.7898  141.3117  166.7221 N.ar    1  UNL1       -0.3100
      2 C         143.0094  139.8809  166.3292 C.ar    1  UNL1        0.1317
      3 N         142.9306  139.0421  167.5703 N.ar    1  UNL1       -0.2300
      4 C         142.6624  139.9546  168.7302 C.ar    1  UNL1        0.0984
      5 C         142.4862  139.6894  170.1960 C.ar    1  UNL1        0.0206
      6 C         142.2229  140.8270  171.1376 C.ar    1  UNL1        0.0016
      7 C         142.1359  142.2297  170.6134 C.ar    1  UNL1        0.0016
      8 C         142.3121  142.4949  169.1476 C.ar    1  UNL1        0.0188
      9 C         142.5754  141.3573  168.2060 C.ar    1  UNL1        0.0789
     10 C         143.2631  139.3772  164.9393 C.3     1  UNL1        0.1199
     11 C         144.5815  139.6419  164.2746 C.3     1  UNL1        0.0871
     12 N         144.8352  139.1382  162.8847 N.3     1  UNL1       -0.2957
     13 C         143.7706  138.3698  162.1594 C.3     1  UNL1        0.0804
     14 C         142.4522  138.1051  162.8241 C.3     1  UNL1        0.0750
     15 S         142.1985  138.6088  164.2140 S.3     1  UNL1       -0.1306
     16 H         145.6532  138.5310  162.9363 H       1  UNL1        0.1233
     17 C         142.7854  142.4902  165.7941 C.3     1  UNL1        0.1339
     18 C         137.6537  144.2984  163.2652 C.3     1  UNL1        0.0310
     19 C         138.9367  143.8464  163.8974 C.ar    1  UNL1       -0.0219
     20 C         138.9566  142.6178  164.7578 C.ar    1  UNL1       -0.0045
     21 C         140.2396  142.1657  165.3900 C.ar    1  UNL1       -0.0027
     22 C         141.5026  142.9422  165.1619 C.ar    1  UNL1        0.0004
     23 C         141.4825  144.1708  164.3015 C.ar    1  UNL1       -0.0027
     24 C         140.1996  144.6228  163.6693 C.ar    1  UNL1       -0.0045
@<TRIPOS>BOND
     1    18    19    1
     2    19    20   ar
     3    20    21   ar
     4    21    22   ar
     5    22    17    1
     6    17     1    1
     7     1     2   ar
     8     2    10    1
     9    10    11    1
    10    11    12    1
    11    12    13    1
    12    13    14    1
    13    14    15    1
    14     2     3   ar
    15     3     4   ar
    16     4     5   ar
    17     5     6   ar
    18     6     7   ar
    19     7     8   ar
    20     8     9   ar
    21    22    23   ar
    22    23    24   ar
    23    24    19   ar
    24     9     1   ar
    25    15    10    1
    26     9     4   ar
    27    12    16    1
@<TRIPOS>MOLECULE
*****
 24 27 0 0 0
SMALL
GASTEIGER

@<TRIPOS>ATOM
      1 N         141.1494  139.8857  166.6814 N.ar    1  UNL1       -0.3100
      2 C         139.7292  139.5371  166.3475 C.ar    1  UNL1        0.1317
      3 N         138.9251  139.6080  167.6118 N.ar    1  UNL1       -0.2300
      4 C         139.8484  140.0004  168.7270 C.ar    1  UNL1        0.0984
      5 C         139.6148  140.2236  170.1918 C.ar    1  UNL1        0.0206
      6 C         140.7561  140.6185  171.0815 C.ar    1  UNL1        0.0016
      7 C         142.1308  140.7901  170.5065 C.ar    1  UNL1        0.0016
      8 C         142.3643  140.5669  169.0417 C.ar    1  UNL1        0.0188
      9 C         141.2231  140.1721  168.1520 C.ar    1  UNL1        0.0789
     10 C         139.2051  139.1803  164.9881 C.3     1  UNL1        0.1199
     11 C         139.3110  137.7694  164.4901 C.3     1  UNL1        0.0871
     12 N         138.7869  137.4126  163.1307 N.3     1  UNL1       -0.2957
     13 C         138.1570  138.4667  162.2693 C.3     1  UNL1        0.0804
     14 C         138.0511  139.8776  162.7673 C.3     1  UNL1        0.0750
     15 S         138.5752  140.2344  164.1267 S.3     1  UNL1       -0.1306
     16 H         138.0846  136.6856  163.2674 H       1  UNL1        0.1233
     17 C         142.2950  139.9387  165.7145 C.3     1  UNL1        0.1339
     18 C         143.9480  145.1794  163.3057 C.3     1  UNL1        0.0310
     19 C         143.5348  143.8692  163.9079 C.ar    1  UNL1       -0.0219
     20 C         142.1214  143.6680  164.3684 C.ar    1  UNL1       -0.0045
     21 C         141.7082  142.3578  164.9705 C.ar    1  UNL1       -0.0027
     22 C         142.7082  141.2488  165.1123 C.ar    1  UNL1        0.0004
     23 C         144.1215  141.4501  164.6518 C.ar    1  UNL1       -0.0027
     24 C         144.5348  142.7602  164.0496 C.ar    1  UNL1       -0.0045
@<TRIPOS>BOND
     1    18    19    1
     2    19    20   ar
     3    20    21   ar
     4    21    22   ar
     5    22    17    1
     6    17     1    1
     7     1     2   ar
     8     2    10    1
     9    10    11    1
    10    11    12    1
    11    12    13    1
    12    13    14    1
    13    14    15    1
    14     2     3   ar
    15     3     4   ar
    16     4     5   ar
    17     5     6   ar
    18     6     7   ar
    19     7     8   ar
    20     8     9   ar
    21    22    23   ar
    22    23    24   ar
    23    24    19   ar
    24     9     1   ar
    25    15    10    1
    26     9     4   ar
    27    12    16    1
@<TRIPOS>MOLECULE
*****
 24 27 0 0 0
SMALL
GASTEIGER

@<TRIPOS>ATOM
      1 N         140.6260  140.8876  166.3019 N.ar    1  UNL1       -0.3100
      2 C         139.4360  140.0070  166.0605 C.ar    1  UNL1        0.1317
      3 N         138.8238  139.6803  167.3903 N.ar    1  UNL1       -0.2300
      4 C         139.6355  140.3589  168.4536 C.ar    1  UNL1        0.0984
      5 C         139.5043  140.3938  169.9474 C.ar    1  UNL1        0.0206
      6 C         140.4869  141.1750  170.7686 C.ar    1  UNL1        0.0016
      7 C         141.6007  141.9212  170.0959 C.ar    1  UNL1        0.0016
      8 C         141.7319  141.8863  168.6021 C.ar    1  UNL1        0.0188
      9 C         140.7493  141.1052  167.7809 C.ar    1  UNL1        0.0789
     10 C         138.9444  139.5359  164.7239 C.3     1  UNL1        0.1199
     11 C         138.0934  140.4359  163.8779 C.3     1  UNL1        0.0871
     12 N         137.6019  139.9647  162.5414 N.3     1  UNL1       -0.2957
     13 C         137.9613  138.5936  162.0508 C.3     1  UNL1        0.0804
     14 C         138.8123  137.6936  162.8968 C.3     1  UNL1        0.0750
     15 S         139.3039  138.1647  164.2334 S.3     1  UNL1       -0.1306
     16 H         137.9523  140.6265  161.8488 H       1  UNL1        0.1233
     17 C         141.5335  141.4518  165.2492 C.3     1  UNL1        0.1339
     18 C         139.7942  146.1994  162.0189 C.3     1  UNL1        0.0310
     19 C         140.2290  145.0125  162.8265 C.ar    1  UNL1       -0.0219
     20 C         141.2920  144.0951  162.2988 C.ar    1  UNL1       -0.0045
     21 C         141.7268  142.9082  163.1064 C.ar    1  UNL1       -0.0027
     22 C         141.0986  142.6386  164.4417 C.ar    1  UNL1        0.0004
     23 C         140.0357  143.5561  164.9693 C.ar    1  UNL1       -0.0027
     24 C         139.6008  144.7430  164.1617 C.ar    1  UNL1       -0.0045
@<TRIPOS>BOND
     1    18    19    1
     2    19    20   ar
     3    20    21   ar
     4    21    22   ar
     5    22    17    1
     6    17     1    1
     7     1     2   ar
     8     2    10    1
     9    10    11    1
    10    11    12    1
    11    12    13    1
    12    13    14    1
    13    14    15    1
    14     2     3   ar
    15     3     4   ar
    16     4     5   ar
    17     5     6   ar
    18     6     7   ar
    19     7     8   ar
    20     8     9   ar
    21    22    23   ar
    22    23    24   ar
    23    24    19   ar
    24     9     1   ar
    25    15    10    1
    26     9     4   ar
    27    12    16    1
@<TRIPOS>MOLECULE
*****
 24 27 0 0 0
SMALL
GASTEIGER

@<TRIPOS>ATOM
      1 N         141.6067  141.6419  164.3750 N.ar    1  UNL1       -0.3100
      2 C         142.1036  142.5793  163.3147 C.ar    1  UNL1        0.1317
      3 N         143.4875  142.1494  162.9275 N.ar    1  UNL1       -0.2300
      4 C         143.8459  140.9463  163.7484 C.ar    1  UNL1        0.0984
      5 C         145.0806  140.0959  163.7970 C.ar    1  UNL1        0.0206
      6 C         145.1528  138.9318  164.7401 C.ar    1  UNL1        0.0016
      7 C         143.9904  138.6181  165.6348 C.ar    1  UNL1        0.0016
      8 C         142.7558  139.4685  165.5863 C.ar    1  UNL1        0.0188
      9 C         142.6835  140.6326  164.6431 C.ar    1  UNL1        0.0789
     10 C         141.3490  143.7424  162.7421 C.3     1  UNL1        0.1199
     11 C         141.4245  145.0854  163.4059 C.3     1  UNL1        0.0871
     12 N         140.6700  146.2485  162.8334 N.3     1  UNL1       -0.2957
     13 C         139.8399  146.0687  161.5970 C.3     1  UNL1        0.0804
     14 C         139.7645  144.7257  160.9332 C.3     1  UNL1        0.0750
     15 S         140.5190  143.5626  161.5058 S.3     1  UNL1       -0.1306
     16 H         141.3583  146.9714  162.6234 H       1  UNL1        0.1233
     17 C         140.2680  141.7029  165.0490 C.3     1  UNL1        0.1339
     18 C         139.9272  141.8361  171.0378 C.3     1  UNL1        0.0310
     19 C         140.0124  141.8028  169.5406 C.ar    1  UNL1       -0.0219
     20 C         139.6263  140.5599  168.7948 C.ar    1  UNL1       -0.0045
     21 C         139.7115  140.5266  167.2976 C.ar    1  UNL1       -0.0027
     22 C         140.1828  141.7363  166.5461 C.ar    1  UNL1        0.0004
     23 C         140.5690  142.9791  167.2919 C.ar    1  UNL1       -0.0027
     24 C         140.4838  143.0124  168.7891 C.ar    1  UNL1       -0.0045
@<TRIPOS>BOND
     1    18    19    1
     2    19    20   ar
     3    20    21   ar
     4    21    22   ar
     5    22    17    1
     6    17     1    1
     7     1     2   ar
     8     2    10    1
     9    10    11    1
    10    11    12    1
    11    12    13    1
    12    13    14    1
    13    14    15    1
    14     2     3   ar
    15     3     4   ar
    16     4     5   ar
    17     5     6   ar
    18     6     7   ar
    19     7     8   ar
    20     8     9   ar
    21    22    23   ar
    22    23    24   ar
    23    24    19   ar
    24     9     1   ar
    25    15    10    1
    26     9     4   ar
    27    12    16    1
@<TRIPOS>MOLECULE
*****
 24 27 0 0 0
SMALL
GASTEIGER

@<TRIPOS>ATOM
      1 N         141.0077  141.2327  166.5751 N.ar    1  UNL1       -0.3100
      2 C         140.3241  139.9107  166.3886 C.ar    1  UNL1        0.1317
      3 N         139.5287  139.6214  167.6270 N.ar    1  UNL1       -0.2300
      4 C         139.7208  140.7647  168.5789 C.ar    1  UNL1        0.0984
      5 C         139.1815  141.0275  169.9536 C.ar    1  UNL1        0.0206
      6 C         139.5562  142.2863  170.6782 C.ar    1  UNL1        0.0016
      7 C         140.4703  143.2822  170.0281 C.ar    1  UNL1        0.0016
      8 C         141.0096  143.0193  168.6533 C.ar    1  UNL1        0.0188
      9 C         140.6349  141.7605  167.9287 C.ar    1  UNL1        0.0789
     10 C         140.4191  139.0321  165.1765 C.3     1  UNL1        0.1199
     11 C         141.6966  138.3063  164.8746 C.3     1  UNL1        0.0871
     12 N         141.7916  137.4278  163.6625 N.3     1  UNL1       -0.2957
     13 C         140.6092  137.2751  162.7523 C.3     1  UNL1        0.0804
     14 C         139.3317  138.0009  163.0542 C.3     1  UNL1        0.0750
     15 S         139.2367  138.8794  164.2663 S.3     1  UNL1       -0.1306
     16 H         142.0305  136.4933  163.9942 H       1  UNL1        0.1233
     17 C         141.9064  141.9084  165.5822 C.3     1  UNL1        0.1339
     18 C         139.7342  146.2160  162.0149 C.3     1  UNL1        0.0310
     19 C         140.2773  145.1391  162.9067 C.ar    1  UNL1       -0.0219
     20 C         139.3397  144.1932  163.5968 C.ar    1  UNL1       -0.0045
     21 C         139.8828  143.1163  164.4886 C.ar    1  UNL1       -0.0027
     22 C         141.3634  142.9853  164.6904 C.ar    1  UNL1        0.0004
     23 C         142.3009  143.9312  164.0003 C.ar    1  UNL1       -0.0027
     24 C         141.7579  145.0081  163.1085 C.ar    1  UNL1       -0.0045
@<TRIPOS>BOND
     1    18    19    1
     2    19    20   ar
     3    20    21   ar
     4    21    22   ar
     5    22    17    1
     6    17     1    1
     7     1     2   ar
     8     2    10    1
     9    10    11    1
    10    11    12    1
    11    12    13    1
    12    13    14    1
    13    14    15    1
    14     2     3   ar
    15     3     4   ar
    16     4     5   ar
    17     5     6   ar
    18     6     7   ar
    19     7     8   ar
    20     8     9   ar
    21    22    23   ar
    22    23    24   ar
    23    24    19   ar
    24     9     1   ar
    25    15    10    1
    26     9     4   ar
    27    12    16    1
