@<TRIPOS>MOLECULE
*****
 31 35 0 0 0
SMALL
GASTEIGER

@<TRIPOS>ATOM
      1 N         139.5877  141.2882  161.9682 N.ar    1  UNL1       -0.2815
      2 C         138.8910  141.3721  160.6424 C.ar    1  UNL1        0.3316
      3 O         137.7151  140.5470  160.2106 O.2     1  UNL1       -0.2463
      4 N         139.5767  142.4259  159.8244 N.ar    1  UNL1       -0.2765
      5 C         139.2069  142.8397  158.4308 C.3     1  UNL1        0.1352
      6 C         140.6971  142.9934  160.6445 C.ar    1  UNL1        0.0989
      7 C         141.7120  144.0595  160.3560 C.ar    1  UNL1        0.1175
      8 N         142.7338  144.4225  161.3924 N.ar    1  UNL1       -0.2422
      9 C         142.7406  143.7193  162.7174 C.ar    1  UNL1        0.0850
     10 C         143.7624  144.0824  163.7539 C.ar    1  UNL1        0.0488
     11 C         143.7692  143.3793  165.0788 C.ar    1  UNL1        0.1416
     12 F         144.7909  143.7422  166.1153 F       1  UNL1       -0.2041
     13 C         142.7542  142.3131  165.3673 C.ar    1  UNL1        0.0291
     14 C         141.7325  141.9501  164.3309 C.ar    1  UNL1        0.0053
     15 C         141.7257  142.6532  163.0059 C.ar    1  UNL1        0.0352
     16 C         140.7039  142.2903  161.9695 C.ar    1  UNL1        0.0826
     17 C         142.7610  141.6100  166.6923 C.ar    1  UNL1        0.0213
     18 C         142.6574  142.4018  167.9621 C.ar    1  UNL1        0.0029
     19 C         142.6642  141.6987  169.2871 C.ar    1  UNL1        0.0173
     20 CA        142.7746  140.2037  169.3423 C.ar    1  UNL1        0.0885
     21 N         142.8782  139.4119  168.0725 N.ar    1  UNL1       -0.2457
     22 C         142.8714  140.1151  166.7475 C.ar    1  UNL1        0.0986
     23 C         142.7814  139.5006  170.6672 C.3     1  UNL1        0.1829
     24 O         144.0548  139.3933  171.4529 O.3     1  UNL1       -0.3760
     25 H         144.6863  138.8370  170.9706 H       1  UNL1        0.2110
     26 C         138.7260  139.0583  164.6883 C.3     1  UNL1        0.1191
     27 C         139.7071  139.0185  163.5544 C.3     1  UNL1        0.0524
     28 C         139.2308  140.3646  163.0949 C.3     1  UNL1        0.0947
     29 C         138.2496  140.4044  164.2289 C.3     1  UNL1        0.0524
     30 C         137.7625  138.6843  167.0720 C.3     1  UNL1        0.1740
     31 O         138.3691  138.1347  165.8150 O.3     1  UNL1       -0.3534
@<TRIPOS>BOND
     1    30    31    1
     2    26    31    1
     3    26    27    1
     4    27    28    1
     5    28     1    1
     6     1     2   ar
     7     2     3    2
     8     2     4   ar
     9     4     5    1
    10     4     6   ar
    11     6     7   ar
    12     7     8   ar
    13     8     9   ar
    14     9    10   ar
    15    10    11   ar
    16    11    12    1
    17    11    13   ar
    18    13    17    1
    19    17    18   ar
    20    18    19   ar
    21    19    20   ar
    22    20    23    1
    23    23    24    1
    24    20    21   ar
    25    21    22   ar
    26    13    14   ar
    27    14    15   ar
    28    15    16   ar
    29    28    29    1
    30    29    26    1
    31    16     1   ar
    32    16     6   ar
    33    15     9   ar
    34    22    17   ar
    35    24    25    1
@<TRIPOS>MOLECULE
*****
 31 35 0 0 0
SMALL
GASTEIGER

@<TRIPOS>ATOM
      1 N         142.5334  141.3758  167.1057 N.ar    1  UNL1       -0.2815
      2 C         142.7750  142.0070  168.4448 C.ar    1  UNL1        0.3316
      3 O         143.9502  142.8614  168.8177 O.2     1  UNL1       -0.2463
      4 N         141.6352  141.6338  169.3456 N.ar    1  UNL1       -0.2765
      5 C         141.4703  142.0494  170.7774 C.3     1  UNL1        0.1352
      6 C         140.6891  140.7719  168.5632 C.ar    1  UNL1        0.0989
      7 C         139.3938  140.1117  168.9325 C.ar    1  UNL1        0.1175
      8 N         138.6537  139.2921  167.9174 N.ar    1  UNL1       -0.2422
      9 C         139.2088  139.1327  166.5331 C.ar    1  UNL1        0.0850
     10 C         138.4687  138.3130  165.5180 C.ar    1  UNL1        0.0488
     11 C         139.0238  138.1535  164.1337 C.ar    1  UNL1        0.1416
     12 F         138.2837  137.3339  163.1186 F       1  UNL1       -0.2041
     13 C         140.3191  138.8138  163.7644 C.ar    1  UNL1        0.0291
     14 C         141.0592  139.6334  164.7795 C.ar    1  UNL1        0.0053
     15 C         140.5041  139.7929  166.1638 C.ar    1  UNL1        0.0352
     16 C         141.2442  140.6125  167.1789 C.ar    1  UNL1        0.0826
     17 C         140.8743  138.6543  162.3801 C.ar    1  UNL1        0.0213
     18 C         142.1720  137.9316  162.1711 C.ar    1  UNL1        0.0029
     19 C         142.7272  137.7722  160.7868 C.ar    1  UNL1        0.0173
     20 CA        141.9846  138.3355  159.6114 C.ar    1  UNL1        0.0885
     21 N         140.6869  139.0581  159.8205 N.ar    1  UNL1       -0.2457
     22 C         140.1318  139.2176  161.2048 C.ar    1  UNL1        0.0986
     23 C         142.5397  138.1760  158.2271 C.3     1  UNL1        0.1829
     24 O         143.6967  139.0202  157.7812 O.3     1  UNL1       -0.3760
     25 H         143.4219  139.9496  157.7398 H       1  UNL1        0.2110
     26 C         144.6847  141.6472  164.2053 C.3     1  UNL1        0.1191
     27 C         144.0980  140.5101  164.9881 C.3     1  UNL1        0.0524
     28 C         143.4245  141.4882  165.9043 C.3     1  UNL1        0.0947
     29 C         144.0112  142.6254  165.1216 C.3     1  UNL1        0.0524
     30 C         144.9919  142.1087  161.6671 C.3     1  UNL1        0.1740
     31 O         145.5758  141.7596  163.0039 O.3     1  UNL1       -0.3534
@<TRIPOS>BOND
     1    30    31    1
     2    26    31    1
     3    26    27    1
     4    27    28    1
     5    28     1    1
     6     1     2   ar
     7     2     3    2
     8     2     4   ar
     9     4     5    1
    10     4     6   ar
    11     6     7   ar
    12     7     8   ar
    13     8     9   ar
    14     9    10   ar
    15    10    11   ar
    16    11    12    1
    17    11    13   ar
    18    13    17    1
    19    17    18   ar
    20    18    19   ar
    21    19    20   ar
    22    20    23    1
    23    23    24    1
    24    20    21   ar
    25    21    22   ar
    26    13    14   ar
    27    14    15   ar
    28    15    16   ar
    29    28    29    1
    30    29    26    1
    31    16     1   ar
    32    16     6   ar
    33    15     9   ar
    34    22    17   ar
    35    24    25    1
@<TRIPOS>MOLECULE
*****
 31 35 0 0 0
SMALL
GASTEIGER

@<TRIPOS>ATOM
      1 N         140.7937  139.4696  161.8044 N.ar    1  UNL1       -0.2815
      2 C         140.5864  139.1173  160.3612 C.ar    1  UNL1        0.3316
      3 O         139.5828  138.1383  159.8280 O.2     1  UNL1       -0.2463
      4 N         141.5588  139.9160  159.5449 N.ar    1  UNL1       -0.2765
      5 C         141.6985  139.8758  158.0519 C.3     1  UNL1        0.1352
      6 C         142.3672  140.7618  160.4835 C.ar    1  UNL1        0.0989
      7 C         143.4727  141.7476  160.2470 C.ar    1  UNL1        0.1175
      8 N         144.1054  142.4575  161.4071 N.ar    1  UNL1       -0.2422
      9 C         143.6325  142.1816  162.8036 C.ar    1  UNL1        0.0850
     10 C         144.2652  142.8916  163.9637 C.ar    1  UNL1        0.0488
     11 C         143.7924  142.6157  165.3602 C.ar    1  UNL1        0.1416
     12 F         144.4250  143.3256  166.5202 F       1  UNL1       -0.2041
     13 C         142.6868  141.6299  165.5966 C.ar    1  UNL1        0.0291
     14 C         142.0541  140.9200  164.4366 C.ar    1  UNL1        0.0053
     15 C         142.5270  141.1958  163.0401 C.ar    1  UNL1        0.0352
     16 C         141.8943  140.4859  161.8801 C.ar    1  UNL1        0.0826
     17 C         142.2139  141.3540  166.9932 C.ar    1  UNL1        0.0213
     18 C         142.6856  140.1272  167.7161 C.ar    1  UNL1        0.0029
     19 C         142.2127  139.8513  169.1126 C.ar    1  UNL1        0.0173
     20 CA        141.2681  140.8022  169.7862 C.ar    1  UNL1        0.0885
     21 N         140.7965  142.0289  169.0633 N.ar    1  UNL1       -0.2457
     22 C         141.2694  142.3048  167.6668 C.ar    1  UNL1        0.0986
     23 C         140.7953  140.5263  171.1827 C.3     1  UNL1        0.1829
     24 O         139.7932  139.4387  171.4342 O.3     1  UNL1       -0.3760
     25 H         138.9484  139.6755  171.0205 H       1  UNL1        0.2110
     26 C         138.9592  138.1058  164.6132 C.3     1  UNL1        0.1191
     27 C         140.2375  137.7560  163.9107 C.3     1  UNL1        0.0524
     28 C         140.0339  138.9047  162.9679 C.3     1  UNL1        0.0947
     29 C         138.7555  139.2546  163.6704 C.3     1  UNL1        0.0524
     30 C         137.7306  138.4462  166.8770 C.3     1  UNL1        0.1740
     31 O         138.1994  137.5409  165.7766 O.3     1  UNL1       -0.3534
@<TRIPOS>BOND
     1    30    31    1
     2    26    31    1
     3    26    27    1
     4    27    28    1
     5    28     1    1
     6     1     2   ar
     7     2     3    2
     8     2     4   ar
     9     4     5    1
    10     4     6   ar
    11     6     7   ar
    12     7     8   ar
    13     8     9   ar
    14     9    10   ar
    15    10    11   ar
    16    11    12    1
    17    11    13   ar
    18    13    17    1
    19    17    18   ar
    20    18    19   ar
    21    19    20   ar
    22    20    23    1
    23    23    24    1
    24    20    21   ar
    25    21    22   ar
    26    13    14   ar
    27    14    15   ar
    28    15    16   ar
    29    28    29    1
    30    29    26    1
    31    16     1   ar
    32    16     6   ar
    33    15     9   ar
    34    22    17   ar
    35    24    25    1
@<TRIPOS>MOLECULE
*****
 31 35 0 0 0
SMALL
GASTEIGER

@<TRIPOS>ATOM
      1 N         142.8519  139.7721  166.0979 N.ar    1  UNL1       -0.2815
      2 C         143.2166  138.8445  167.2188 C.ar    1  UNL1        0.3316
      3 O         144.1227  137.6533  167.1181 O.2     1  UNL1       -0.2463
      4 N         142.5161  139.3172  168.4581 N.ar    1  UNL1       -0.2765
      5 C         142.5987  138.6817  169.8144 C.3     1  UNL1        0.1352
      6 C         141.7185  140.5369  168.1032 C.ar    1  UNL1        0.0989
      7 C         140.8300  141.4279  168.9197 C.ar    1  UNL1        0.1175
      8 N         140.1491  142.6000  168.2776 N.ar    1  UNL1       -0.2422
      9 C         140.3566  142.8812  166.8189 C.ar    1  UNL1        0.0850
     10 C         139.6756  144.0534  166.1767 C.ar    1  UNL1        0.0488
     11 C         139.8832  144.3346  164.7180 C.ar    1  UNL1        0.1416
     12 F         139.2022  145.5067  164.0758 F       1  UNL1       -0.2041
     13 C         140.7717  143.4435  163.9014 C.ar    1  UNL1        0.0291
     14 C         141.4526  142.2714  164.5436 C.ar    1  UNL1        0.0053
     15 C         141.2451  141.9902  166.0023 C.ar    1  UNL1        0.0352
     16 C         141.9260  140.8181  166.6444 C.ar    1  UNL1        0.0826
     17 C         140.9792  143.7247  162.4427 C.ar    1  UNL1        0.0213
     18 C         139.8245  143.6333  161.4896 C.ar    1  UNL1        0.0029
     19 C         140.0320  143.9145  160.0308 C.ar    1  UNL1        0.0173
     20 CA        141.3943  144.2871  159.5253 C.ar    1  UNL1        0.0885
     21 N         142.5489  144.3785  160.4784 N.ar    1  UNL1       -0.2457
     22 C         142.3413  144.0973  161.9371 C.ar    1  UNL1        0.0986
     23 C         141.6018  144.5683  158.0665 C.3     1  UNL1        0.1829
     24 O         142.5997  145.6025  157.6366 O.3     1  UNL1       -0.3760
     25 H         142.3044  146.4785  157.9304 H       1  UNL1        0.2110
     26 C         144.0043  139.5291  162.6734 C.3     1  UNL1        0.1191
     27 C         144.4590  140.2705  163.8955 C.3     1  UNL1        0.0524
     28 C         143.3293  139.6715  164.6795 C.3     1  UNL1        0.0947
     29 C         142.8744  138.9300  163.4573 C.3     1  UNL1        0.0524
     30 C         143.8779  140.3033  160.1966 C.3     1  UNL1        0.1740
     31 O         144.4816  139.4285  161.2550 O.3     1  UNL1       -0.3534
@<TRIPOS>BOND
     1    30    31    1
     2    26    31    1
     3    26    27    1
     4    27    28    1
     5    28     1    1
     6     1     2   ar
     7     2     3    2
     8     2     4   ar
     9     4     5    1
    10     4     6   ar
    11     6     7   ar
    12     7     8   ar
    13     8     9   ar
    14     9    10   ar
    15    10    11   ar
    16    11    12    1
    17    11    13   ar
    18    13    17    1
    19    17    18   ar
    20    18    19   ar
    21    19    20   ar
    22    20    23    1
    23    23    24    1
    24    20    21   ar
    25    21    22   ar
    26    13    14   ar
    27    14    15   ar
    28    15    16   ar
    29    28    29    1
    30    29    26    1
    31    16     1   ar
    32    16     6   ar
    33    15     9   ar
    34    22    17   ar
    35    24    25    1
@<TRIPOS>MOLECULE
*****
 31 35 0 0 0
SMALL
GASTEIGER

@<TRIPOS>ATOM
      1 N         141.0496  141.4421  166.6182 N.ar    1  UNL1       -0.2815
      2 C         140.7429  141.7157  168.0607 C.ar    1  UNL1        0.3316
      3 O         141.3974  142.7572  168.9192 O.2     1  UNL1       -0.2463
      4 N         139.6667  140.7650  168.4941 N.ar    1  UNL1       -0.2765
      5 C         139.0560  140.6888  169.8621 C.3     1  UNL1        0.1352
      6 C         139.3083  139.9038  167.3194 C.ar    1  UNL1        0.0989
      7 C         138.3141  138.7927  167.1557 C.ar    1  UNL1        0.1175
      8 N         138.1746  138.1000  165.8326 N.ar    1  UNL1       -0.2422
      9 C         139.0293  138.5185  164.6731 C.ar    1  UNL1        0.0850
     10 C         138.8898  137.8258  163.3499 C.ar    1  UNL1        0.0488
     11 C         139.7446  138.2443  162.1905 C.ar    1  UNL1        0.1416
     12 F         139.6051  137.5517  160.8674 F       1  UNL1       -0.2041
     13 C         140.7388  139.3555  162.3543 C.ar    1  UNL1        0.0291
     14 C         140.8783  140.0482  163.6774 C.ar    1  UNL1        0.0053
     15 C         140.0235  139.6297  164.8368 C.ar    1  UNL1        0.0352
     16 C         140.1630  140.3223  166.1600 C.ar    1  UNL1        0.0826
     17 C         141.5935  139.7740  161.1948 C.ar    1  UNL1        0.0213
     18 C         141.3630  141.1005  160.5334 C.ar    1  UNL1        0.0029
     19 C         142.2177  141.5190  159.3739 C.ar    1  UNL1        0.0173
     20 CA        143.3030  140.6111  158.8760 C.ar    1  UNL1        0.0885
     21 N         143.5335  139.2847  159.5375 N.ar    1  UNL1       -0.2457
     22 C         142.6788  138.8662  160.6969 C.ar    1  UNL1        0.0986
     23 C         144.1578  141.0296  157.7166 C.3     1  UNL1        0.1829
     24 O         145.2250  140.1101  157.2012 O.3     1  UNL1       -0.3760
     25 H         145.9115  140.0002  157.8776 H       1  UNL1        0.2110
     26 C         143.5006  143.1799  164.5965 C.3     1  UNL1        0.1191
     27 C         142.0208  143.3036  164.8088 C.3     1  UNL1        0.0524
     28 C         142.0648  142.1620  165.7807 C.3     1  UNL1        0.0947
     29 C         143.5446  142.0382  165.5684 C.3     1  UNL1        0.0524
     30 C         144.5193  143.7245  162.2693 C.3     1  UNL1        0.1740
     31 O         144.5157  143.8997  163.7590 O.3     1  UNL1       -0.3534
@<TRIPOS>BOND
     1    30    31    1
     2    26    31    1
     3    26    27    1
     4    27    28    1
     5    28     1    1
     6     1     2   ar
     7     2     3    2
     8     2     4   ar
     9     4     5    1
    10     4     6   ar
    11     6     7   ar
    12     7     8   ar
    13     8     9   ar
    14     9    10   ar
    15    10    11   ar
    16    11    12    1
    17    11    13   ar
    18    13    17    1
    19    17    18   ar
    20    18    19   ar
    21    19    20   ar
    22    20    23    1
    23    23    24    1
    24    20    21   ar
    25    21    22   ar
    26    13    14   ar
    27    14    15   ar
    28    15    16   ar
    29    28    29    1
    30    29    26    1
    31    16     1   ar
    32    16     6   ar
    33    15     9   ar
    34    22    17   ar
    35    24    25    1
@<TRIPOS>MOLECULE
*****
 31 35 0 0 0
SMALL
GASTEIGER

@<TRIPOS>ATOM
      1 N         141.9758  139.9220  166.4868 N.ar    1  UNL1       -0.2815
      2 C         142.6964  139.4799  167.7259 C.ar    1  UNL1        0.3316
      3 O         143.5460  138.2510  167.8606 O.2     1  UNL1       -0.2463
      4 N         142.4182  140.4823  168.8065 N.ar    1  UNL1       -0.2765
      5 C         142.9407  140.4319  170.2116 C.3     1  UNL1        0.1352
      6 C         141.5256  141.5439  168.2353 C.ar    1  UNL1        0.0989
      7 C         140.9265  142.7812  168.8355 C.ar    1  UNL1        0.1175
      8 N         140.0541  143.6722  168.0020 N.ar    1  UNL1       -0.2422
      9 C         139.7806  143.3260  166.5683 C.ar    1  UNL1        0.0850
     10 C         138.9081  144.2171  165.7348 C.ar    1  UNL1        0.0488
     11 C         138.6347  143.8708  164.3011 C.ar    1  UNL1        0.1416
     12 F         137.7622  144.7619  163.4676 F       1  UNL1       -0.2041
     13 C         139.2338  142.6335  163.7010 C.ar    1  UNL1        0.0291
     14 C         140.1063  141.7425  164.5345 C.ar    1  UNL1        0.0053
     15 C         140.3797  142.0887  165.9682 C.ar    1  UNL1        0.0352
     16 C         141.2522  141.1977  166.8017 C.ar    1  UNL1        0.0826
     17 C         138.9604  142.2872  162.2674 C.ar    1  UNL1        0.0213
     18 C         138.4753  140.9143  161.9067 C.ar    1  UNL1        0.0029
     19 C         138.2019  140.5681  160.4731 C.ar    1  UNL1        0.0173
     20 CA        138.4136  141.5947  159.4001 C.ar    1  UNL1        0.0885
     21 N         138.8986  142.9675  159.7607 N.ar    1  UNL1       -0.2457
     22 C         139.1720  143.3138  161.1944 C.ar    1  UNL1        0.0986
     23 C         138.1402  141.2485  157.9664 C.3     1  UNL1        0.1829
     24 O         136.9382  140.4249  157.6098 O.3     1  UNL1       -0.3760
     25 H         137.0376  139.5323  157.9763 H       1  UNL1        0.2110
     26 C         141.9817  138.2103  163.2956 C.3     1  UNL1        0.1191
     27 C         142.8436  139.2550  163.9405 C.3     1  UNL1        0.0524
     28 C         141.9783  139.2130  165.1650 C.3     1  UNL1        0.0947
     29 C         141.1164  138.1682  164.5201 C.3     1  UNL1        0.0524
     30 C         141.5581  138.2274  160.7323 C.3     1  UNL1        0.1740
     31 O         141.9842  137.5013  161.9737 O.3     1  UNL1       -0.3534
@<TRIPOS>BOND
     1    30    31    1
     2    26    31    1
     3    26    27    1
     4    27    28    1
     5    28     1    1
     6     1     2   ar
     7     2     3    2
     8     2     4   ar
     9     4     5    1
    10     4     6   ar
    11     6     7   ar
    12     7     8   ar
    13     8     9   ar
    14     9    10   ar
    15    10    11   ar
    16    11    12    1
    17    11    13   ar
    18    13    17    1
    19    17    18   ar
    20    18    19   ar
    21    19    20   ar
    22    20    23    1
    23    23    24    1
    24    20    21   ar
    25    21    22   ar
    26    13    14   ar
    27    14    15   ar
    28    15    16   ar
    29    28    29    1
    30    29    26    1
    31    16     1   ar
    32    16     6   ar
    33    15     9   ar
    34    22    17   ar
    35    24    25    1
@<TRIPOS>MOLECULE
*****
 31 35 0 0 0
SMALL
GASTEIGER

@<TRIPOS>ATOM
      1 N         140.7649  142.6027  167.1661 N.ar    1  UNL1       -0.2815
      2 C         140.6097  143.0158  168.5997 C.ar    1  UNL1        0.3316
      3 O         139.9004  144.2423  169.0920 O.2     1  UNL1       -0.2463
      4 N         141.2885  141.9869  169.4546 N.ar    1  UNL1       -0.2765
      5 C         141.3770  142.0040  170.9519 C.3     1  UNL1        0.1352
      6 C         141.8632  140.9380  168.5493 C.ar    1  UNL1        0.0989
      7 C         142.6393  139.6855  168.8302 C.ar    1  UNL1        0.1175
      8 N         143.0918  138.8136  167.6967 N.ar    1  UNL1       -0.2422
      9 C         142.7682  139.1941  166.2823 C.ar    1  UNL1        0.0850
     10 C         143.2208  138.3221  165.1488 C.ar    1  UNL1        0.0488
     11 C         142.8972  138.7027  163.7344 C.ar    1  UNL1        0.1416
     12 F         143.3498  137.8307  162.6009 F       1  UNL1       -0.2041
     13 C         142.1211  139.9552  163.4535 C.ar    1  UNL1        0.0291
     14 C         141.6686  140.8271  164.5871 C.ar    1  UNL1        0.0053
     15 C         141.9921  140.4466  166.0014 C.ar    1  UNL1        0.0352
     16 C         141.5396  141.3185  167.1350 C.ar    1  UNL1        0.0826
     17 C         141.7975  140.3357  162.0392 C.ar    1  UNL1        0.0213
     18 C         140.3931  140.2026  161.5292 C.ar    1  UNL1        0.0029
     19 C         140.0695  140.5831  160.1148 C.ar    1  UNL1        0.0173
     20 CA        141.1504  141.0968  159.2104 C.ar    1  UNL1        0.0885
     21 N         142.5547  141.2299  159.7203 N.ar    1  UNL1       -0.2457
     22 C         142.8783  140.8494  161.1347 C.ar    1  UNL1        0.0986
     23 C         140.8268  141.4774  157.7960 C.3     1  UNL1        0.1829
     24 O         140.0240  142.7133  157.5168 O.3     1  UNL1       -0.3760
     25 H         139.1254  142.6005  157.8642 H       1  UNL1        0.2110
     26 C         139.4929  144.3914  164.2857 C.3     1  UNL1        0.1191
     27 C         138.8728  143.6949  165.4606 C.3     1  UNL1        0.0524
     28 C         140.2380  143.3436  165.9730 C.3     1  UNL1        0.0947
     29 C         140.8582  144.0401  164.7981 C.3     1  UNL1        0.0524
     30 C         139.9126  145.8531  162.1793 C.3     1  UNL1        0.1740
     31 O         138.9660  145.1324  163.0927 O.3     1  UNL1       -0.3534
@<TRIPOS>BOND
     1    30    31    1
     2    26    31    1
     3    26    27    1
     4    27    28    1
     5    28     1    1
     6     1     2   ar
     7     2     3    2
     8     2     4   ar
     9     4     5    1
    10     4     6   ar
    11     6     7   ar
    12     7     8   ar
    13     8     9   ar
    14     9    10   ar
    15    10    11   ar
    16    11    12    1
    17    11    13   ar
    18    13    17    1
    19    17    18   ar
    20    18    19   ar
    21    19    20   ar
    22    20    23    1
    23    23    24    1
    24    20    21   ar
    25    21    22   ar
    26    13    14   ar
    27    14    15   ar
    28    15    16   ar
    29    28    29    1
    30    29    26    1
    31    16     1   ar
    32    16     6   ar
    33    15     9   ar
    34    22    17   ar
    35    24    25    1
@<TRIPOS>MOLECULE
*****
 31 35 0 0 0
SMALL
GASTEIGER

@<TRIPOS>ATOM
      1 N         141.1472  142.4476  165.9143 N.ar    1  UNL1       -0.2815
      2 C         140.7940  142.4832  167.3716 C.ar    1  UNL1        0.3316
      3 O         139.9847  143.5440  168.0571 O.2     1  UNL1       -0.2463
      4 N         141.3921  141.2717  168.0232 N.ar    1  UNL1       -0.2765
      5 C         141.2859  140.9083  169.4747 C.3     1  UNL1        0.1352
      6 C         142.1150  140.4874  166.9686 C.ar    1  UNL1        0.0989
      7 C         142.8915  139.2054  167.0267 C.ar    1  UNL1        0.1175
      8 N         143.5167  138.6501  165.7814 N.ar    1  UNL1       -0.2422
      9 C         143.3653  139.3769  164.4780 C.ar    1  UNL1        0.0850
     10 C         143.9905  138.8215  163.2327 C.ar    1  UNL1        0.0488
     11 C         143.8392  139.5483  161.9292 C.ar    1  UNL1        0.1416
     12 F         144.4644  138.9930  160.6839 F       1  UNL1       -0.2041
     13 C         143.0627  140.8304  161.8711 C.ar    1  UNL1        0.0291
     14 C         142.4375  141.3856  163.1164 C.ar    1  UNL1        0.0053
     15 C         142.5888  140.6589  164.4199 C.ar    1  UNL1        0.0352
     16 C         141.9637  141.2141  165.6652 C.ar    1  UNL1        0.0826
     17 C         142.9113  141.5571  160.5677 C.ar    1  UNL1        0.0213
     18 C         142.1125  140.9444  159.4557 C.ar    1  UNL1        0.0029
     19 C         141.9611  141.6712  158.1523 C.ar    1  UNL1        0.0173
     20 CA        142.6087  143.0107  157.9609 C.ar    1  UNL1        0.0885
     21 N         143.4075  143.6233  159.0728 N.ar    1  UNL1       -0.2457
     22 C         143.5588  142.8965  160.3763 C.ar    1  UNL1        0.0986
     23 C         142.4574  143.7374  156.6574 C.3     1  UNL1        0.1829
     24 O         142.7328  145.2101  156.5835 O.3     1  UNL1       -0.3760
     25 H         142.0764  145.6888  157.1134 H       1  UNL1        0.2110
     26 C         140.1960  144.9076  163.4328 C.3     1  UNL1        0.1191
     27 C         141.4446  144.6131  164.2102 C.3     1  UNL1        0.0524
     28 C         140.7533  143.4666  164.8864 C.3     1  UNL1        0.0947
     29 C         139.5046  143.7610  164.1090 C.3     1  UNL1        0.0524
     30 C         140.1222  145.6949  160.9580 C.3     1  UNL1        0.1740
     31 O         139.8020  145.9266  162.4050 O.3     1  UNL1       -0.3534
@<TRIPOS>BOND
     1    30    31    1
     2    26    31    1
     3    26    27    1
     4    27    28    1
     5    28     1    1
     6     1     2   ar
     7     2     3    2
     8     2     4   ar
     9     4     5    1
    10     4     6   ar
    11     6     7   ar
    12     7     8   ar
    13     8     9   ar
    14     9    10   ar
    15    10    11   ar
    16    11    12    1
    17    11    13   ar
    18    13    17    1
    19    17    18   ar
    20    18    19   ar
    21    19    20   ar
    22    20    23    1
    23    23    24    1
    24    20    21   ar
    25    21    22   ar
    26    13    14   ar
    27    14    15   ar
    28    15    16   ar
    29    28    29    1
    30    29    26    1
    31    16     1   ar
    32    16     6   ar
    33    15     9   ar
    34    22    17   ar
    35    24    25    1
@<TRIPOS>MOLECULE
*****
 31 35 0 0 0
SMALL
GASTEIGER

@<TRIPOS>ATOM
      1 N         140.7803  141.0468  166.7177 N.ar    1  UNL1       -0.2815
      2 C         140.6931  140.7257  168.1804 C.ar    1  UNL1        0.3316
      3 O         139.7075  141.3030  169.1526 O.2     1  UNL1       -0.2463
      4 N         141.7647  139.7260  168.5000 N.ar    1  UNL1       -0.2765
      5 C         142.0389  139.1280  169.8481 C.3     1  UNL1        0.1352
      6 C         142.5141  139.4291  167.2350 C.ar    1  UNL1        0.0989
      7 C         143.6719  138.5210  166.9438 C.ar    1  UNL1        0.1175
      8 N         144.2212  138.4292  165.5511 N.ar    1  UNL1       -0.2422
      9 C         143.6127  139.2455  164.4495 C.ar    1  UNL1        0.0850
     10 C         144.1621  139.1537  163.0567 C.ar    1  UNL1        0.0488
     11 C         143.5537  139.9700  161.9552 C.ar    1  UNL1        0.1416
     12 F         144.1030  139.8782  160.5624 F       1  UNL1       -0.2041
     13 C         142.3958  140.8782  162.2464 C.ar    1  UNL1        0.0291
     14 C         141.8465  140.9700  163.6391 C.ar    1  UNL1        0.0053
     15 C         142.4550  140.1536  164.7407 C.ar    1  UNL1        0.0352
     16 C         141.9057  140.2455  166.1334 C.ar    1  UNL1        0.0826
     17 C         141.7874  141.6945  161.1449 C.ar    1  UNL1        0.0213
     18 C         142.0741  143.1641  161.0542 C.ar    1  UNL1        0.0029
     19 C         141.4657  143.9804  159.9527 C.ar    1  UNL1        0.0173
     20 CA        140.5705  143.3271  158.9417 C.ar    1  UNL1        0.0885
     21 N         140.2838  141.8576  159.0324 N.ar    1  UNL1       -0.2457
     22 C         140.8922  141.0413  160.1340 C.ar    1  UNL1        0.0986
     23 C         139.9620  144.1434  157.8402 C.3     1  UNL1        0.1829
     24 O         140.1506  145.6314  157.8174 O.3     1  UNL1       -0.3760
     25 H         139.6997  146.0262  158.5801 H       1  UNL1        0.2110
     26 C         138.6480  143.3519  164.9138 C.3     1  UNL1        0.1191
     27 C         138.6757  141.8651  165.1104 C.3     1  UNL1        0.0524
     28 C         139.8970  142.0015  165.9705 C.3     1  UNL1        0.0947
     29 C         139.8693  143.4884  165.7739 C.3     1  UNL1        0.0524
     30 C         138.0478  144.6204  162.7273 C.3     1  UNL1        0.1740
     31 O         137.7648  144.3066  164.1666 O.3     1  UNL1       -0.3534
@<TRIPOS>BOND
     1    30    31    1
     2    26    31    1
     3    26    27    1
     4    27    28    1
     5    28     1    1
     6     1     2   ar
     7     2     3    2
     8     2     4   ar
     9     4     5    1
    10     4     6   ar
    11     6     7   ar
    12     7     8   ar
    13     8     9   ar
    14     9    10   ar
    15    10    11   ar
    16    11    12    1
    17    11    13   ar
    18    13    17    1
    19    17    18   ar
    20    18    19   ar
    21    19    20   ar
    22    20    23    1
    23    23    24    1
    24    20    21   ar
    25    21    22   ar
    26    13    14   ar
    27    14    15   ar
    28    15    16   ar
    29    28    29    1
    30    29    26    1
    31    16     1   ar
    32    16     6   ar
    33    15     9   ar
    34    22    17   ar
    35    24    25    1
