@<TRIPOS>MOLECULE
*****
 36 38 0 0 0
SMALL
GASTEIGER

@<TRIPOS>ATOM
      1 N         138.9988  139.4793  163.1057 N.am    1  UNL1       -0.2797
      2 C         139.6798  138.3665  162.3655 C.3     1  UNL1        0.0956
      3 C         139.1618  138.3609  160.9578 C.3     1  UNL1        0.0505
      4 C         138.1606  139.4703  160.8279 C.3     1  UNL1        0.1507
      5 C         138.0599  140.1615  162.1554 C.2     1  UNL1        0.2435
      6 O         137.1755  141.3298  162.4762 O.2     1  UNL1       -0.2731
      7 C         139.6570  140.5782  167.4195 C.3     1  UNL1        0.0577
      8 C         138.7105  139.4703  167.0638 C.3     1  UNL1        0.0177
      9 C         138.4911  139.1040  165.6258 C.3     1  UNL1        0.0212
     10 C         139.2182  139.8456  164.5436 C.3     1  UNL1        0.0771
     11 C         140.1647  140.9535  164.8993 C.3     1  UNL1        0.0432
     12 C         140.3841  141.3198  166.3373 C.3     1  UNL1        0.0194
     13 N         139.8764  140.9445  168.8575 N.3     1  UNL1       -0.2741
     14 C         139.0313  140.3201  169.9278 C.3     1  UNL1        0.0896
     15 C         142.3681  141.4908  169.3503 C.3     1  UNL1        0.0173
     16 C         140.9410  141.9352  169.2250 C.3     1  UNL1        0.0576
     17 C         140.5784  143.3705  169.4674 C.3     1  UNL1        0.0173
     18 C         140.8919  141.6952  163.8171 C.3     1  UNL1        0.1525
     19 S         140.9950  143.1907  163.8717 S.O2    1  UNL1       -0.0082
     20 C         141.0980  144.6862  163.9263 C.3     1  UNL1        0.1760
     21 O         142.4688  143.0797  164.1275 O.2     1  UNL1       -0.1729
     22 O         139.5211  143.3016  163.6159 O.2     1  UNL1       -0.1729
     23 N         137.3946  139.8261  159.5883 N.am    1  UNL1       -0.2935
     24 C         138.0747  140.5608  158.4714 C.2     1  UNL1        0.2639
     25 O         139.5209  140.9398  158.5940 O.2     1  UNL1       -0.2685
     26 H         136.4455  139.5773  159.5078 H       1  UNL1        0.1502
     27 C         137.3087  140.9165  157.2318 C.ar    1  UNL1        0.1343
     28 C         137.9900  141.6475  156.1131 C.ar    1  UNL1        0.0238
     29 C         137.2239  142.0032  154.8734 C.ar    1  UNL1        0.0032
     30 C         135.7766  141.6280  154.7525 C.ar    1  UNL1        0.0231
     31 C         135.0954  140.8971  155.8713 C.ar    1  UNL1        0.1527
     32 N         135.8614  140.5413  157.1110 N.ar    1  UNL1       -0.2368
     33 C         133.6481  140.5218  155.7504 C.3     1  UNL1        0.4348
     34 F         132.2008  140.1466  155.6296 F       1  UNL1       -0.1644
     35 F         133.6759  140.8833  154.2949 F       1  UNL1       -0.1644
     36 F         133.6203  140.1604  157.2059 F       1  UNL1       -0.1644
@<TRIPOS>BOND
     1    15    16    1
     2    16    17    1
     3    16    13    1
     4    13    14    1
     5     7    13    1
     6     7     8    1
     7     8     9    1
     8     9    10    1
     9    10     1    1
    10     1     2    1
    11     2     3    1
    12     3     4    1
    13     4    23    1
    14    23    24   am
    15    24    25    2
    16    24    27    1
    17    27    28   ar
    18    28    29   ar
    19    29    30   ar
    20    30    31   ar
    21    31    33    1
    22    33    34    1
    23    33    35    1
    24    33    36    1
    25    31    32   ar
    26     4     5    1
    27     5     6    2
    28    10    11    1
    29    11    18    1
    30    18    19    1
    31    19    20    1
    32    19    21    2
    33    19    22    2
    34    11    12    1
    35    12     7    1
    36     5     1   am
    37    32    27   ar
    38    23    26    1
@<TRIPOS>MOLECULE
*****
 36 38 0 0 0
SMALL
GASTEIGER

@<TRIPOS>ATOM
      1 N         139.0039  139.0808  163.2950 N.am    1  UNL1       -0.2797
      2 C         139.4970  137.8936  162.5220 C.3     1  UNL1        0.0956
      3 C         138.9766  138.0048  161.1196 C.3     1  UNL1        0.0505
      4 C         138.1619  139.2608  161.0258 C.3     1  UNL1        0.1507
      5 C         138.1787  139.9257  162.3702 C.2     1  UNL1        0.2435
      6 O         137.4911  141.2101  162.7273 O.2     1  UNL1       -0.2731
      7 C         139.8511  139.9541  167.6274 C.3     1  UNL1        0.0577
      8 C         138.5540  139.3135  167.2312 C.3     1  UNL1        0.0177
      9 C         138.2716  139.0224  165.7870 C.3     1  UNL1        0.0212
     10 C         139.2863  139.3719  164.7391 C.3     1  UNL1        0.0771
     11 C         140.5834  140.0124  165.1353 C.3     1  UNL1        0.0432
     12 C         140.8659  140.3035  166.5795 C.3     1  UNL1        0.0194
     13 N         140.1336  140.2452  169.0715 N.3     1  UNL1       -0.2741
     14 C         138.9991  140.4544  170.0302 C.3     1  UNL1        0.0896
     15 C         142.2003  141.6648  169.7520 C.3     1  UNL1        0.0173
     16 C         141.5505  140.3271  169.5569 C.3     1  UNL1        0.0576
     17 C         142.3176  139.0711  169.8473 C.3     1  UNL1        0.0173
     18 C         141.5982  140.3620  164.0874 C.3     1  UNL1        0.1525
     19 S         143.0264  139.9350  164.2544 S.O2    1  UNL1       -0.0082
     20 C         144.4547  139.5080  164.4215 C.3     1  UNL1        0.1760
     21 O         142.6106  138.4985  164.1375 O.2     1  UNL1       -0.1729
     22 O         143.4422  141.3714  164.3714 O.2     1  UNL1       -0.1729
     23 N         137.4545  139.7635  159.8023 N.am    1  UNL1       -0.2935
     24 C         138.2326  140.4296  158.7065 C.2     1  UNL1        0.2639
     25 O         139.7182  140.5930  158.8342 O.2     1  UNL1       -0.2685
     26 H         136.4794  139.6563  159.7185 H       1  UNL1        0.1502
     27 C         137.5252  140.9323  157.4832 C.ar    1  UNL1        0.1343
     28 C         138.2460  141.8186  156.5110 C.ar    1  UNL1        0.0238
     29 C         137.5385  142.3213  155.2875 C.ar    1  UNL1        0.0032
     30 C         136.1103  141.9378  155.0362 C.ar    1  UNL1        0.0231
     31 C         135.3895  141.0516  156.0084 C.ar    1  UNL1        0.1527
     32 N         136.0970  140.5488  157.2319 N.ar    1  UNL1       -0.2368
     33 C         133.9613  140.6680  155.7571 C.3     1  UNL1        0.4348
     34 F         132.5332  140.2845  155.5058 F       1  UNL1       -0.1644
     35 F         133.8721  140.0941  157.1400 F       1  UNL1       -0.1644
     36 F         134.0505  141.2420  154.3741 F       1  UNL1       -0.1644
@<TRIPOS>BOND
     1    15    16    1
     2    16    17    1
     3    16    13    1
     4    13    14    1
     5     7    13    1
     6     7     8    1
     7     8     9    1
     8     9    10    1
     9    10     1    1
    10     1     2    1
    11     2     3    1
    12     3     4    1
    13     4    23    1
    14    23    24   am
    15    24    25    2
    16    24    27    1
    17    27    28   ar
    18    28    29   ar
    19    29    30   ar
    20    30    31   ar
    21    31    33    1
    22    33    34    1
    23    33    35    1
    24    33    36    1
    25    31    32   ar
    26     4     5    1
    27     5     6    2
    28    10    11    1
    29    11    18    1
    30    18    19    1
    31    19    20    1
    32    19    21    2
    33    19    22    2
    34    11    12    1
    35    12     7    1
    36     5     1   am
    37    32    27   ar
    38    23    26    1
@<TRIPOS>MOLECULE
*****
 36 38 0 0 0
SMALL
GASTEIGER

@<TRIPOS>ATOM
      1 N         142.9206  139.1289  163.2334 N.am    1  UNL1       -0.2797
      2 C         144.0279  139.8065  162.4820 C.3     1  UNL1        0.0956
      3 C         144.1829  139.1140  161.1605 C.3     1  UNL1        0.0505
      4 C         143.1713  138.0083  161.0952 C.3     1  UNL1        0.1507
      5 C         142.3912  138.0175  162.3763 C.2     1  UNL1        0.2435
      6 O         141.2773  137.0799  162.7370 O.2     1  UNL1       -0.2731
      7 C         141.4458  140.2357  167.3383 C.3     1  UNL1        0.0577
      8 C         142.5654  139.2494  167.1843 C.3     1  UNL1        0.0177
      9 C         143.0570  138.8805  165.8160 C.3     1  UNL1        0.0212
     10 C         142.4290  139.4978  164.6017 C.3     1  UNL1        0.0771
     11 C         141.3094  140.4841  164.7558 C.3     1  UNL1        0.0432
     12 C         140.8178  140.8530  166.1240 C.3     1  UNL1        0.0194
     13 N         140.9542  140.6046  168.7066 N.3     1  UNL1       -0.2741
     14 C         139.5663  140.2270  169.1320 C.3     1  UNL1        0.0896
     15 C         142.7331  142.4492  169.1343 C.3     1  UNL1        0.0173
     16 C         141.8506  141.3512  169.6495 C.3     1  UNL1        0.0576
     17 C         141.8644  140.9997  171.1078 C.3     1  UNL1        0.0173
     18 C         140.6814  141.1015  163.5415 C.3     1  UNL1        0.1525
     19 S         139.1888  141.1148  163.3937 S.O2    1  UNL1       -0.0082
     20 C         137.6961  141.1281  163.2460 C.3     1  UNL1        0.1760
     21 O         139.1917  139.6237  163.2302 O.2     1  UNL1       -0.1729
     22 O         139.1859  142.6058  163.5572 O.2     1  UNL1       -0.1729
     23 N         142.9745  137.0599  159.9499 N.am    1  UNL1       -0.2935
     24 C         142.5919  137.5855  158.5981 C.2     1  UNL1        0.2639
     25 O         142.4062  139.0596  158.3916 O.2     1  UNL1       -0.2685
     26 H         143.0964  136.0924  160.0854 H       1  UNL1        0.1502
     27 C         142.3950  136.6371  157.4528 C.ar    1  UNL1        0.1343
     28 C         141.3140  136.8927  156.4448 C.ar    1  UNL1        0.0238
     29 C         141.1171  135.9442  155.2994 C.ar    1  UNL1        0.0032
     30 C         142.0012  134.7402  155.1622 C.ar    1  UNL1        0.0231
     31 C         143.0822  134.4847  156.1702 C.ar    1  UNL1        0.1527
     32 N         143.2791  135.4332  157.3156 N.ar    1  UNL1       -0.2368
     33 C         143.9663  133.2808  156.0330 C.3     1  UNL1        0.4348
     34 F         144.8504  132.0768  155.8957 F       1  UNL1       -0.1644
     35 F         144.5423  133.5488  157.3918 F       1  UNL1       -0.1644
     36 F         143.3904  133.0127  154.6741 F       1  UNL1       -0.1644
@<TRIPOS>BOND
     1    15    16    1
     2    16    17    1
     3    16    13    1
     4    13    14    1
     5     7    13    1
     6     7     8    1
     7     8     9    1
     8     9    10    1
     9    10     1    1
    10     1     2    1
    11     2     3    1
    12     3     4    1
    13     4    23    1
    14    23    24   am
    15    24    25    2
    16    24    27    1
    17    27    28   ar
    18    28    29   ar
    19    29    30   ar
    20    30    31   ar
    21    31    33    1
    22    33    34    1
    23    33    35    1
    24    33    36    1
    25    31    32   ar
    26     4     5    1
    27     5     6    2
    28    10    11    1
    29    11    18    1
    30    18    19    1
    31    19    20    1
    32    19    21    2
    33    19    22    2
    34    11    12    1
    35    12     7    1
    36     5     1   am
    37    32    27   ar
    38    23    26    1
@<TRIPOS>MOLECULE
*****
 36 38 0 0 0
SMALL
GASTEIGER

@<TRIPOS>ATOM
      1 N         142.8880  139.3572  162.8964 N.am    1  UNL1       -0.2797
      2 C         144.0013  140.0070  162.1295 C.3     1  UNL1        0.0956
      3 C         144.1707  139.2629  160.8381 C.3     1  UNL1        0.0505
      4 C         143.1620  138.1532  160.8069 C.3     1  UNL1        0.1507
      5 C         142.3692  138.2114  162.0790 C.2     1  UNL1        0.2435
      6 O         141.2536  137.2863  162.4657 O.2     1  UNL1       -0.2731
      7 C         141.3706  140.6226  166.9395 C.3     1  UNL1        0.0577
      8 C         142.3764  139.5153  166.8287 C.3     1  UNL1        0.0177
      9 C         142.8821  139.0935  165.4811 C.3     1  UNL1        0.0212
     10 C         142.3822  139.7790  164.2441 C.3     1  UNL1        0.0771
     11 C         141.3765  140.8863  164.3548 C.3     1  UNL1        0.0432
     12 C         140.8707  141.3081  165.7025 C.3     1  UNL1        0.0194
     13 N         140.8649  141.0445  168.2871 N.3     1  UNL1       -0.2741
     14 C         139.8226  140.2241  168.9875 C.3     1  UNL1        0.0896
     15 C         140.4594  143.3596  169.3943 C.3     1  UNL1        0.0173
     16 C         141.4014  142.2866  168.9345 C.3     1  UNL1        0.0576
     17 C         142.8800  142.4560  169.1220 C.3     1  UNL1        0.0173
     18 C         140.8765  141.5719  163.1178 C.3     1  UNL1        0.1525
     19 S         139.4037  141.6423  162.8427 S.O2    1  UNL1       -0.0082
     20 C         137.9307  141.7127  162.5675 C.3     1  UNL1        0.1760
     21 O         139.4327  143.1251  163.0669 O.2     1  UNL1       -0.1729
     22 O         139.3746  140.1595  162.6185 O.2     1  UNL1       -0.1729
     23 N         142.9782  137.1596  159.6983 N.am    1  UNL1       -0.2935
     24 C         142.4663  137.6120  158.3629 C.2     1  UNL1        0.2639
     25 O         142.1382  139.0580  158.1361 O.2     1  UNL1       -0.2685
     26 H         143.1936  136.2105  159.8471 H       1  UNL1        0.1502
     27 C         142.2826  136.6184  157.2543 C.ar    1  UNL1        0.1343
     28 C         141.1782  136.8039  156.2564 C.ar    1  UNL1        0.0238
     29 C         140.9944  135.8102  155.1477 C.ar    1  UNL1        0.0032
     30 C         141.9151  134.6312  155.0371 C.ar    1  UNL1        0.0231
     31 C         143.0195  134.4457  156.0350 C.ar    1  UNL1        0.1527
     32 N         143.2032  135.4394  157.1437 N.ar    1  UNL1       -0.2368
     33 C         143.9401  133.2667  155.9244 C.3     1  UNL1        0.4348
     34 F         144.8607  132.0876  155.8138 F       1  UNL1       -0.1644
     35 F         143.3578  132.9380  154.5817 F       1  UNL1       -0.1644
     36 F         144.5223  133.5953  157.2671 F       1  UNL1       -0.1644
@<TRIPOS>BOND
     1    15    16    1
     2    16    17    1
     3    16    13    1
     4    13    14    1
     5     7    13    1
     6     7     8    1
     7     8     9    1
     8     9    10    1
     9    10     1    1
    10     1     2    1
    11     2     3    1
    12     3     4    1
    13     4    23    1
    14    23    24   am
    15    24    25    2
    16    24    27    1
    17    27    28   ar
    18    28    29   ar
    19    29    30   ar
    20    30    31   ar
    21    31    33    1
    22    33    34    1
    23    33    35    1
    24    33    36    1
    25    31    32   ar
    26     4     5    1
    27     5     6    2
    28    10    11    1
    29    11    18    1
    30    18    19    1
    31    19    20    1
    32    19    21    2
    33    19    22    2
    34    11    12    1
    35    12     7    1
    36     5     1   am
    37    32    27   ar
    38    23    26    1
@<TRIPOS>MOLECULE
*****
 36 38 0 0 0
SMALL
GASTEIGER

@<TRIPOS>ATOM
      1 N         139.2618  142.3697  163.7082 N.am    1  UNL1       -0.2797
      2 C         137.8575  142.4824  163.1934 C.3     1  UNL1        0.0956
      3 C         137.9247  142.8107  161.7313 C.3     1  UNL1        0.0505
      4 C         139.3706  142.9008  161.3425 C.3     1  UNL1        0.1507
      5 C         140.1970  142.6283  162.5643 C.2     1  UNL1        0.2435
      6 O         141.6955  142.6164  162.6306 O.2     1  UNL1       -0.2731
      7 C         140.4591  141.4222  167.9413 C.3     1  UNL1        0.0577
      8 C         140.4586  142.8437  167.4623 C.3     1  UNL1        0.0177
      9 C         140.0595  143.1595  166.0513 C.3     1  UNL1        0.0212
     10 C         139.6609  142.0539  165.1193 C.3     1  UNL1        0.0771
     11 C         139.6613  140.6325  165.5983 C.3     1  UNL1        0.0432
     12 C         140.0604  140.3166  167.0093 C.3     1  UNL1        0.0194
     13 N         140.8582  141.1064  169.3523 N.3     1  UNL1       -0.2741
     14 C         139.8777  141.3014  170.4706 C.3     1  UNL1        0.0896
     15 C         143.3768  141.5590  169.8011 C.3     1  UNL1        0.0173
     16 C         142.2377  140.5956  169.6451 C.3     1  UNL1        0.0576
     17 C         142.4783  139.1213  169.7819 C.3     1  UNL1        0.0173
     18 C         139.2627  139.5268  164.6663 C.3     1  UNL1        0.1525
     19 S         140.1729  138.3519  164.4637 S.O2    1  UNL1       -0.0082
     20 C         141.0832  137.1770  164.2610 C.3     1  UNL1        0.1760
     21 O         139.1691  137.4591  165.1309 O.2     1  UNL1       -0.1729
     22 O         141.1767  139.2446  163.7964 O.2     1  UNL1       -0.1729
     23 N         139.8977  143.2093  159.9724 N.am    1  UNL1       -0.2935
     24 C         140.1125  144.6339  159.5547 C.2     1  UNL1        0.2639
     25 O         139.8003  145.7499  160.5070 O.2     1  UNL1       -0.2685
     26 H         140.1026  142.4768  159.3474 H       1  UNL1        0.1502
     27 C         140.6395  144.9423  158.1847 C.ar    1  UNL1        0.1343
     28 C         141.8314  144.2011  157.6552 C.ar    1  UNL1        0.0238
     29 C         142.3585  144.5095  156.2851 C.ar    1  UNL1        0.0032
     30 C         141.6938  145.5591  155.4445 C.ar    1  UNL1        0.0231
     31 C         140.5019  146.3002  155.9739 C.ar    1  UNL1        0.1527
     32 N         139.9748  145.9918  157.3440 N.ar    1  UNL1       -0.2368
     33 C         139.8372  147.3497  155.1333 C.3     1  UNL1        0.4348
     34 F         139.1725  148.3992  154.2927 F       1  UNL1       -0.1644
     35 F         138.7663  147.5035  156.1722 F       1  UNL1       -0.1644
     36 F         140.9082  147.1959  154.0944 F       1  UNL1       -0.1644
@<TRIPOS>BOND
     1    15    16    1
     2    16    17    1
     3    16    13    1
     4    13    14    1
     5     7    13    1
     6     7     8    1
     7     8     9    1
     8     9    10    1
     9    10     1    1
    10     1     2    1
    11     2     3    1
    12     3     4    1
    13     4    23    1
    14    23    24   am
    15    24    25    2
    16    24    27    1
    17    27    28   ar
    18    28    29   ar
    19    29    30   ar
    20    30    31   ar
    21    31    33    1
    22    33    34    1
    23    33    35    1
    24    33    36    1
    25    31    32   ar
    26     4     5    1
    27     5     6    2
    28    10    11    1
    29    11    18    1
    30    18    19    1
    31    19    20    1
    32    19    21    2
    33    19    22    2
    34    11    12    1
    35    12     7    1
    36     5     1   am
    37    32    27   ar
    38    23    26    1
@<TRIPOS>MOLECULE
*****
 36 38 0 0 0
SMALL
GASTEIGER

@<TRIPOS>ATOM
      1 N         138.9448  139.1961  163.1694 N.am    1  UNL1       -0.2797
      2 C         139.3650  137.9915  162.3805 C.3     1  UNL1        0.0956
      3 C         138.8692  138.1617  160.9750 C.3     1  UNL1        0.0505
      4 C         138.1426  139.4715  160.8953 C.3     1  UNL1        0.1507
      5 C         138.1893  140.1108  162.2515 C.2     1  UNL1        0.2435
      6 O         137.5864  141.4327  162.6243 O.2     1  UNL1       -0.2731
      7 C         139.8004  139.9358  167.5249 C.3     1  UNL1        0.0577
      8 C         138.5037  139.3049  167.1119 C.3     1  UNL1        0.0177
      9 C         138.2185  139.0584  165.6601 C.3     1  UNL1        0.0212
     10 C         139.2300  139.4426  164.6212 C.3     1  UNL1        0.0771
     11 C         140.5267  140.0735  165.0342 C.3     1  UNL1        0.0432
     12 C         140.8119  140.3201  166.4861 C.3     1  UNL1        0.0194
     13 N         140.0856  140.1824  168.9768 N.3     1  UNL1       -0.2741
     14 C         138.9535  140.3082  169.9527 C.3     1  UNL1        0.0896
     15 C         142.3373  139.0714  169.6443 C.3     1  UNL1        0.0173
     16 C         141.5029  140.3031  169.4527 C.3     1  UNL1        0.0576
     17 C         142.0860  141.6556  169.7371 C.3     1  UNL1        0.0173
     18 C         141.5382  140.4578  163.9954 C.3     1  UNL1        0.1525
     19 S         142.9661  140.0221  164.1416 S.O2    1  UNL1       -0.0082
     20 C         144.3940  139.5863  164.2878 C.3     1  UNL1        0.1760
     21 O         143.3772  141.4463  164.3708 O.2     1  UNL1       -0.1729
     22 O         142.5549  138.5979  163.9123 O.2     1  UNL1       -0.1729
     23 N         137.4848  140.0420  159.6739 N.am    1  UNL1       -0.2935
     24 C         138.2494  140.9653  158.7722 C.2     1  UNL1        0.2639
     25 O         139.6718  141.3181  159.0920 O.2     1  UNL1       -0.2685
     26 H         136.5512  139.8104  159.4640 H       1  UNL1        0.1502
     27 C         137.5915  141.5356  157.5509 C.ar    1  UNL1        0.1343
     28 C         136.5027  140.7703  156.8589 C.ar    1  UNL1        0.0238
     29 C         135.8447  141.3407  155.6375 C.ar    1  UNL1        0.0032
     30 C         136.2756  142.6764  155.1080 C.ar    1  UNL1        0.0231
     31 C         137.3644  143.4417  155.8000 C.ar    1  UNL1        0.1527
     32 N         138.0223  142.8713  157.0215 N.ar    1  UNL1       -0.2368
     33 C         137.7953  144.7774  155.2706 C.3     1  UNL1        0.4348
     34 F         138.2261  146.1130  154.7412 F       1  UNL1       -0.1644
     35 F         138.8888  144.8310  156.2959 F       1  UNL1       -0.1644
     36 F         136.7018  144.7237  154.2452 F       1  UNL1       -0.1644
@<TRIPOS>BOND
     1    15    16    1
     2    16    17    1
     3    16    13    1
     4    13    14    1
     5     7    13    1
     6     7     8    1
     7     8     9    1
     8     9    10    1
     9    10     1    1
    10     1     2    1
    11     2     3    1
    12     3     4    1
    13     4    23    1
    14    23    24   am
    15    24    25    2
    16    24    27    1
    17    27    28   ar
    18    28    29   ar
    19    29    30   ar
    20    30    31   ar
    21    31    33    1
    22    33    34    1
    23    33    35    1
    24    33    36    1
    25    31    32   ar
    26     4     5    1
    27     5     6    2
    28    10    11    1
    29    11    18    1
    30    18    19    1
    31    19    20    1
    32    19    21    2
    33    19    22    2
    34    11    12    1
    35    12     7    1
    36     5     1   am
    37    32    27   ar
    38    23    26    1
@<TRIPOS>MOLECULE
*****
 36 38 0 0 0
SMALL
GASTEIGER

@<TRIPOS>ATOM
      1 N         143.1911  143.0549  164.3594 N.am    1  UNL1       -0.2797
      2 C         143.4483  144.5105  164.1046 C.3     1  UNL1        0.0956
      3 C         144.0018  144.6477  162.7172 C.3     1  UNL1        0.0505
      4 C         144.0866  143.2767  162.1145 C.3     1  UNL1        0.1507
      5 C         143.5856  142.2924  163.1294 C.2     1  UNL1        0.2435
      6 O         143.4950  140.8063  162.9464 O.2     1  UNL1       -0.2731
      7 C         141.5280  141.2861  168.1482 C.3     1  UNL1        0.0577
      8 C         142.9382  141.7962  168.1146 C.3     1  UNL1        0.0177
      9 C         143.4925  142.3858  166.8516 C.3     1  UNL1        0.0212
     10 C         142.6367  142.4653  165.6223 C.3     1  UNL1        0.0771
     11 C         141.2266  141.9552  165.6560 C.3     1  UNL1        0.0432
     12 C         140.6722  141.3656  166.9189 C.3     1  UNL1        0.0194
     13 N         140.9736  140.6965  169.4112 N.3     1  UNL1       -0.2741
     14 C         141.6704  139.5427  170.0692 C.3     1  UNL1        0.0896
     15 C         139.6966  142.6813  170.4975 C.3     1  UNL1        0.0173
     16 C         139.7224  141.2608  170.0162 C.3     1  UNL1        0.0576
     17 C         138.4969  140.4047  170.1398 C.3     1  UNL1        0.0173
     18 C         140.3707  142.0347  164.4266 C.3     1  UNL1        0.1525
     19 S         139.0641  142.7702  164.4686 S.O2    1  UNL1       -0.0082
     20 C         137.7575  143.5058  164.5107 C.3     1  UNL1        0.1760
     21 O         139.7993  144.0664  164.6401 O.2     1  UNL1       -0.1729
     22 O         138.3289  141.4741  164.2972 O.2     1  UNL1       -0.1729
     23 N         144.5850  142.9479  160.7384 N.am    1  UNL1       -0.2935
     24 C         143.6463  142.9955  159.5694 C.2     1  UNL1        0.2639
     25 O         142.2092  143.3721  159.7765 O.2     1  UNL1       -0.2685
     26 H         145.5282  142.7007  160.6025 H       1  UNL1        0.1502
     27 C         144.1447  142.6667  158.1935 C.ar    1  UNL1        0.1343
     28 C         143.1687  142.4176  157.0820 C.ar    1  UNL1        0.0238
     29 C         143.6672  142.0887  155.7059 C.ar    1  UNL1        0.0032
     30 C         145.1415  142.0089  155.4414 C.ar    1  UNL1        0.0231
     31 C         146.1175  142.2579  156.5530 C.ar    1  UNL1        0.1527
     32 N         145.6190  142.5868  157.9290 N.ar    1  UNL1       -0.2368
     33 C         147.5918  142.1780  156.2885 C.3     1  UNL1        0.4348
     34 F         149.0661  142.0982  156.0240 F       1  UNL1       -0.1644
     35 F         147.3213  141.4688  154.9947 F       1  UNL1       -0.1644
     36 F         147.8623  142.8872  157.5822 F       1  UNL1       -0.1644
@<TRIPOS>BOND
     1    15    16    1
     2    16    17    1
     3    16    13    1
     4    13    14    1
     5     7    13    1
     6     7     8    1
     7     8     9    1
     8     9    10    1
     9    10     1    1
    10     1     2    1
    11     2     3    1
    12     3     4    1
    13     4    23    1
    14    23    24   am
    15    24    25    2
    16    24    27    1
    17    27    28   ar
    18    28    29   ar
    19    29    30   ar
    20    30    31   ar
    21    31    33    1
    22    33    34    1
    23    33    35    1
    24    33    36    1
    25    31    32   ar
    26     4     5    1
    27     5     6    2
    28    10    11    1
    29    11    18    1
    30    18    19    1
    31    19    20    1
    32    19    21    2
    33    19    22    2
    34    11    12    1
    35    12     7    1
    36     5     1   am
    37    32    27   ar
    38    23    26    1
@<TRIPOS>MOLECULE
*****
 36 38 0 0 0
SMALL
GASTEIGER

@<TRIPOS>ATOM
      1 N         142.1121  140.7504  158.4945 N.am    1  UNL1       -0.2797
      2 C         142.7659  141.0350  157.1748 C.3     1  UNL1        0.0956
      3 C         143.2100  139.7288  156.5862 C.3     1  UNL1        0.0505
      4 C         142.8308  138.6368  157.5421 C.3     1  UNL1        0.1507
      5 C         142.1522  139.2682  158.7215 C.2     1  UNL1        0.2435
      6 O         141.6092  138.5445  159.9179 O.2     1  UNL1       -0.2731
      7 C         140.3414  143.8065  161.2829 C.3     1  UNL1        0.0577
      8 C         139.4590  143.0706  160.3187 C.3     1  UNL1        0.0177
      9 C         140.0492  142.0519  159.3893 C.3     1  UNL1        0.0212
     10 C         141.5219  141.7691  159.4240 C.3     1  UNL1        0.0771
     11 C         142.4043  142.5050  160.3882 C.3     1  UNL1        0.0432
     12 C         141.8141  143.5237  161.3177 C.3     1  UNL1        0.0194
     13 N         139.7512  144.8251  162.2124 N.3     1  UNL1       -0.2741
     14 C         139.6708  146.2637  161.7952 C.3     1  UNL1        0.0896
     15 C         140.2049  144.1545  164.6811 C.3     1  UNL1        0.0173
     16 C         139.2414  144.4053  163.5591 C.3     1  UNL1        0.0576
     17 C         137.7679  144.2362  163.7840 C.3     1  UNL1        0.0173
     18 C         143.8771  142.2222  160.4229 C.3     1  UNL1        0.1525
     19 S         144.5332  141.8193  161.7102 S.O2    1  UNL1       -0.0082
     20 C         145.1894  141.4164  162.9975 C.3     1  UNL1        0.1760
     21 O         144.1753  140.3871  161.4444 O.2     1  UNL1       -0.1729
     22 O         144.8912  143.2514  161.9760 O.2     1  UNL1       -0.1729
     23 N         143.0853  137.1709  157.3521 N.am    1  UNL1       -0.2935
     24 C         142.1193  136.3380  156.5626 C.2     1  UNL1        0.2639
     25 O         140.8987  136.9711  155.9632 O.2     1  UNL1       -0.2685
     26 H         143.8864  136.7553  157.7455 H       1  UNL1        0.1502
     27 C         142.3739  134.8721  156.3726 C.ar    1  UNL1        0.1343
     28 C         141.5235  134.0799  155.4243 C.ar    1  UNL1        0.0238
     29 C         141.7782  132.6139  155.2343 C.ar    1  UNL1        0.0032
     30 C         142.8831  131.9401  155.9925 C.ar    1  UNL1        0.0231
     31 C         143.7336  132.7323  156.9408 C.ar    1  UNL1        0.1527
     32 N         143.4789  134.1983  157.1309 N.ar    1  UNL1       -0.2368
     33 C         144.8385  132.0585  157.6991 C.3     1  UNL1        0.4348
     34 F         145.9435  131.3847  158.4574 F       1  UNL1       -0.1644
     35 F         145.0102  133.2878  158.5413 F       1  UNL1       -0.1644
     36 F         144.6669  130.8292  156.8569 F       1  UNL1       -0.1644
@<TRIPOS>BOND
     1    15    16    1
     2    16    17    1
     3    16    13    1
     4    13    14    1
     5     7    13    1
     6     7     8    1
     7     8     9    1
     8     9    10    1
     9    10     1    1
    10     1     2    1
    11     2     3    1
    12     3     4    1
    13     4    23    1
    14    23    24   am
    15    24    25    2
    16    24    27    1
    17    27    28   ar
    18    28    29   ar
    19    29    30   ar
    20    30    31   ar
    21    31    33    1
    22    33    34    1
    23    33    35    1
    24    33    36    1
    25    31    32   ar
    26     4     5    1
    27     5     6    2
    28    10    11    1
    29    11    18    1
    30    18    19    1
    31    19    20    1
    32    19    21    2
    33    19    22    2
    34    11    12    1
    35    12     7    1
    36     5     1   am
    37    32    27   ar
    38    23    26    1
@<TRIPOS>MOLECULE
*****
 36 38 0 0 0
SMALL
GASTEIGER

@<TRIPOS>ATOM
      1 N         142.3044  139.0563  163.5455 N.am    1  UNL1       -0.2797
      2 C         141.4674  137.9397  162.9955 C.3     1  UNL1        0.0956
      3 C         141.8895  137.6996  161.5763 C.3     1  UNL1        0.0505
      4 C         142.9874  138.6678  161.2491 C.3     1  UNL1        0.1507
      5 C         143.2438  139.5063  162.4662 C.2     1  UNL1        0.2435
      6 O         144.2611  140.6024  162.5833 O.2     1  UNL1       -0.2731
      7 C         142.0431  140.7575  167.7033 C.3     1  UNL1        0.0577
      8 C         142.7550  139.4585  167.4679 C.3     1  UNL1        0.0177
      9 C         142.8421  138.8914  166.0820 C.3     1  UNL1        0.0212
     10 C         142.2173  139.6234  164.9315 C.3     1  UNL1        0.0771
     11 C         141.5053  140.9225  165.1669 C.3     1  UNL1        0.0432
     12 C         141.4182  141.4895  166.5528 C.3     1  UNL1        0.0194
     13 N         141.9559  141.3246  169.0893 N.3     1  UNL1       -0.2741
     14 C         143.1348  141.2338  170.0123 C.3     1  UNL1        0.0896
     15 C         139.4983  141.1458  169.9126 C.3     1  UNL1        0.0173
     16 C         140.6899  141.9825  169.5523 C.3     1  UNL1        0.0576
     17 C         140.6156  143.4772  169.6549 C.3     1  UNL1        0.0173
     18 C         140.8805  141.6546  164.0164 C.3     1  UNL1        0.1525
     19 S         140.9191  143.1533  163.9712 S.O2    1  UNL1       -0.0082
     20 C         140.9579  144.6522  163.9260 C.3     1  UNL1        0.1760
     21 O         139.4512  143.2004  164.2758 O.2     1  UNL1       -0.1729
     22 O         142.3871  143.1063  163.6665 O.2     1  UNL1       -0.1729
     23 N         143.7033  138.7782  159.9356 N.am    1  UNL1       -0.2935
     24 C         143.0901  139.5580  158.8105 C.2     1  UNL1        0.2639
     25 O         141.7611  140.2274  158.9988 O.2     1  UNL1       -0.2685
     26 H         144.5756  138.3388  159.8120 H       1  UNL1        0.1502
     27 C         143.8060  139.6683  157.4970 C.ar    1  UNL1        0.1343
     28 C         143.3886  138.8086  156.3409 C.ar    1  UNL1        0.0238
     29 C         144.1045  138.9189  155.0273 C.ar    1  UNL1        0.0032
     30 C         145.2378  139.8889  154.8699 C.ar    1  UNL1        0.0231
     31 C         145.6552  140.7486  156.0261 C.ar    1  UNL1        0.1527
     32 N         144.9392  140.6383  157.3396 N.ar    1  UNL1       -0.2368
     33 C         146.7884  141.7186  155.8687 C.3     1  UNL1        0.4348
     34 F         147.9217  142.6886  155.7113 F       1  UNL1       -0.1644
     35 F         146.5079  142.2682  157.2359 F       1  UNL1       -0.1644
     36 F         147.0690  141.1690  154.5015 F       1  UNL1       -0.1644
@<TRIPOS>BOND
     1    15    16    1
     2    16    17    1
     3    16    13    1
     4    13    14    1
     5     7    13    1
     6     7     8    1
     7     8     9    1
     8     9    10    1
     9    10     1    1
    10     1     2    1
    11     2     3    1
    12     3     4    1
    13     4    23    1
    14    23    24   am
    15    24    25    2
    16    24    27    1
    17    27    28   ar
    18    28    29   ar
    19    29    30   ar
    20    30    31   ar
    21    31    33    1
    22    33    34    1
    23    33    35    1
    24    33    36    1
    25    31    32   ar
    26     4     5    1
    27     5     6    2
    28    10    11    1
    29    11    18    1
    30    18    19    1
    31    19    20    1
    32    19    21    2
    33    19    22    2
    34    11    12    1
    35    12     7    1
    36     5     1   am
    37    32    27   ar
    38    23    26    1
