@<TRIPOS>MOLECULE
*****
 23 26 0 0 0
SMALL
GASTEIGER

@<TRIPOS>ATOM
      1 N         139.8926  141.0546  166.6808 N.ar    1  UNL1       -0.3095
      2 C         139.0070  139.8487  166.7878 C.ar    1  UNL1        0.1370
      3 N         138.8784  139.4956  168.2400 N.ar    1  UNL1       -0.2295
      4 C         139.6845  140.4833  169.0304 C.ar    1  UNL1        0.0984
      5 C         139.9287  140.6298  170.5031 C.ar    1  UNL1        0.0206
      6 C         140.7997  141.7399  171.0121 C.ar    1  UNL1        0.0016
      7 C         141.4265  142.7034  170.0484 C.ar    1  UNL1        0.0016
      8 C         141.1823  142.5569  168.5757 C.ar    1  UNL1        0.0188
      9 C         140.3113  141.4469  168.0667 C.ar    1  UNL1        0.0789
     10 C         140.2897  141.7469  165.4107 C.3     1  UNL1        0.1339
     11 CL        146.0197  141.6970  163.6319 Cl      1  UNL1       -0.0822
     12 C         144.5872  141.7095  164.0766 C.ar    1  UNL1        0.0577
     13 C         143.7555  140.4664  163.9620 C.ar    1  UNL1        0.0111
     14 C         142.3230  140.4789  164.4067 C.ar    1  UNL1       -0.0015
     15 C         141.7222  141.7344  164.9660 C.ar    1  UNL1        0.0005
     16 C         142.5539  142.9775  165.0805 C.ar    1  UNL1       -0.0015
     17 C         143.9864  142.9649  164.6358 C.ar    1  UNL1        0.0111
     18 C         138.3631  139.1232  165.6437 C.3     1  UNL1        0.1371
     19 N         139.2144  138.4730  164.5937 N.3     1  UNL1       -0.2664
     20 C         139.0782  138.6551  163.1110 C.3     1  UNL1        0.0725
     21 C         140.1310  137.8212  162.4428 C.3     1  UNL1        0.0188
     22 C         140.9178  137.1237  163.5127 C.3     1  UNL1        0.0188
     23 C         140.3514  137.5266  164.8419 C.3     1  UNL1        0.0725
@<TRIPOS>BOND
     1    11    12    1
     2    12    13   ar
     3    13    14   ar
     4    14    15   ar
     5    15    10    1
     6    10     1    1
     7     1     2   ar
     8     2    18    1
     9    18    19    1
    10    19    20    1
    11    20    21    1
    12    21    22    1
    13    22    23    1
    14     2     3   ar
    15     3     4   ar
    16     4     5   ar
    17     5     6   ar
    18     6     7   ar
    19     7     8   ar
    20     8     9   ar
    21    15    16   ar
    22    16    17   ar
    23    17    12   ar
    24     9     1   ar
    25    23    19    1
    26     9     4   ar
@<TRIPOS>MOLECULE
*****
 23 26 0 0 0
SMALL
GASTEIGER

@<TRIPOS>ATOM
      1 N         139.6809  141.7497  164.5401 N.ar    1  UNL1       -0.3095
      2 C         139.9811  142.0267  163.0968 C.ar    1  UNL1        0.1370
      3 N         139.7998  140.7490  162.3322 N.ar    1  UNL1       -0.2295
      4 C         139.3875  139.6824  163.3029 C.ar    1  UNL1        0.0984
      5 C         139.0695  138.2279  163.1206 C.ar    1  UNL1        0.0206
      6 C         138.6780  137.3919  164.3029 C.ar    1  UNL1        0.0016
      7 C         138.6045  138.0104  165.6674 C.ar    1  UNL1        0.0016
      8 C         138.9225  139.4649  165.8498 C.ar    1  UNL1        0.0188
      9 C         139.3140  140.3009  164.6675 C.ar    1  UNL1        0.0789
     10 C         139.7376  142.7466  165.6595 C.3     1  UNL1        0.1339
     11 CL        144.0526  142.3552  169.8100 Cl      1  UNL1       -0.0822
     12 C         142.9739  142.4530  168.7724 C.ar    1  UNL1        0.0577
     13 C         141.5562  142.7148  169.1868 C.ar    1  UNL1        0.0111
     14 C         140.4774  142.8126  168.1491 C.ar    1  UNL1       -0.0015
     15 C         140.8163  142.6487  166.6970 C.ar    1  UNL1        0.0005
     16 C         142.2340  142.3870  166.2827 C.ar    1  UNL1       -0.0015
     17 C         143.3127  142.2892  167.3204 C.ar    1  UNL1        0.0111
     18 C         140.3908  143.3492  162.5194 C.3     1  UNL1        0.1371
     19 N         141.7321  143.9307  162.8547 N.3     1  UNL1       -0.2664
     20 C         141.9863  145.0885  163.7740 C.3     1  UNL1        0.0725
     21 C         143.4662  145.3300  163.8170 C.3     1  UNL1        0.0188
     22 C         144.1266  144.3214  162.9243 C.3     1  UNL1        0.0188
     23 C         143.0549  143.4567  162.3296 C.3     1  UNL1        0.0725
@<TRIPOS>BOND
     1    11    12    1
     2    12    13   ar
     3    13    14   ar
     4    14    15   ar
     5    15    10    1
     6    10     1    1
     7     1     2   ar
     8     2    18    1
     9    18    19    1
    10    19    20    1
    11    20    21    1
    12    21    22    1
    13    22    23    1
    14     2     3   ar
    15     3     4   ar
    16     4     5   ar
    17     5     6   ar
    18     6     7   ar
    19     7     8   ar
    20     8     9   ar
    21    15    16   ar
    22    16    17   ar
    23    17    12   ar
    24     9     1   ar
    25    23    19    1
    26     9     4   ar
@<TRIPOS>MOLECULE
*****
 23 26 0 0 0
SMALL
GASTEIGER

@<TRIPOS>ATOM
      1 N         141.1756  142.7732  164.0212 N.ar    1  UNL1       -0.3095
      2 C         142.1446  141.8601  163.3304 C.ar    1  UNL1        0.1370
      3 N         142.3486  142.3710  161.9349 N.ar    1  UNL1       -0.2295
      4 C         141.5057  143.5998  161.7633 C.ar    1  UNL1        0.0984
      5 C         141.3046  144.5245  160.5995 C.ar    1  UNL1        0.0206
      6 C         140.3786  145.6978  160.7252 C.ar    1  UNL1        0.0016
      7 C         139.6536  145.9464  162.0146 C.ar    1  UNL1        0.0016
      8 C         139.8547  145.0217  163.1784 C.ar    1  UNL1        0.0188
      9 C         140.7807  143.8484  163.0527 C.ar    1  UNL1        0.0789
     10 C         140.6872  142.6353  165.4328 C.3     1  UNL1        0.1339
     11 CL        137.4353  137.8522  167.0286 Cl      1  UNL1       -0.0822
     12 C         138.2483  139.0480  166.6297 C.ar    1  UNL1        0.0577
     13 C         138.1090  139.6237  165.2515 C.ar    1  UNL1        0.0111
     14 C         138.9220  140.8194  164.8526 C.ar    1  UNL1       -0.0015
     15 C         139.8743  141.4396  165.8317 C.ar    1  UNL1        0.0005
     16 C         140.0135  140.8638  167.2098 C.ar    1  UNL1       -0.0015
     17 C         139.2005  139.6680  167.6088 C.ar    1  UNL1        0.0111
     18 C         142.7954  140.6488  163.9298 C.3     1  UNL1        0.1371
     19 N         142.0710  139.3354  163.9390 N.3     1  UNL1       -0.2664
     20 C         141.3141  138.7378  162.7900 C.3     1  UNL1        0.0725
     21 C         140.7515  137.4220  163.2397 C.3     1  UNL1        0.0188
     22 C         141.1608  137.2063  164.6667 C.3     1  UNL1        0.0188
     23 C         141.9762  138.3888  165.0988 C.3     1  UNL1        0.0725
@<TRIPOS>BOND
     1    11    12    1
     2    12    13   ar
     3    13    14   ar
     4    14    15   ar
     5    15    10    1
     6    10     1    1
     7     1     2   ar
     8     2    18    1
     9    18    19    1
    10    19    20    1
    11    20    21    1
    12    21    22    1
    13    22    23    1
    14     2     3   ar
    15     3     4   ar
    16     4     5   ar
    17     5     6   ar
    18     6     7   ar
    19     7     8   ar
    20     8     9   ar
    21    15    16   ar
    22    16    17   ar
    23    17    12   ar
    24     9     1   ar
    25    23    19    1
    26     9     4   ar
@<TRIPOS>MOLECULE
*****
 23 26 0 0 0
SMALL
GASTEIGER

@<TRIPOS>ATOM
      1 N         140.3240  140.7129  164.8892 N.ar    1  UNL1       -0.3095
      2 C         140.9739  140.1035  163.6824 C.ar    1  UNL1        0.1370
      3 N         140.4877  138.6899  163.5583 N.ar    1  UNL1       -0.2295
      4 C         139.5373  138.4257  164.6883 C.ar    1  UNL1        0.0984
      5 C         138.7510  137.2082  165.0746 C.ar    1  UNL1        0.0206
      6 C         137.8635  137.2409  166.2834 C.ar    1  UNL1        0.0016
      7 C         137.7623  138.4912  167.1059 C.ar    1  UNL1        0.0016
      8 C         138.5487  139.7087  166.7197 C.ar    1  UNL1        0.0188
      9 C         139.4362  139.6760  165.5109 C.ar    1  UNL1        0.0789
     10 C         140.5265  142.1133  165.3869 C.3     1  UNL1        0.1339
     11 CL        143.0557  143.0569  170.7453 Cl      1  UNL1       -0.0822
     12 C         142.4233  142.8210  169.4057 C.ar    1  UNL1        0.0577
     13 C         143.2523  142.3102  168.2646 C.ar    1  UNL1        0.0111
     14 C         142.6199  142.0744  166.9250 C.ar    1  UNL1       -0.0015
     15 C         141.1587  142.3492  166.7264 C.ar    1  UNL1        0.0005
     16 C         140.3299  142.8600  167.8676 C.ar    1  UNL1       -0.0015
     17 C         140.9622  143.0959  169.2071 C.ar    1  UNL1        0.0111
     18 C         141.9404  140.7875  162.7615 C.3     1  UNL1        0.1371
     19 N         143.3214  141.1248  163.2398 N.3     1  UNL1       -0.2664
     20 C         144.3837  140.1409  163.6315 C.3     1  UNL1        0.0725
     21 C         145.6016  140.9133  164.0442 C.3     1  UNL1        0.0188
     22 C         145.2920  142.3747  163.9074 C.3     1  UNL1        0.0188
     23 C         143.8828  142.5054  163.4103 C.3     1  UNL1        0.0725
@<TRIPOS>BOND
     1    11    12    1
     2    12    13   ar
     3    13    14   ar
     4    14    15   ar
     5    15    10    1
     6    10     1    1
     7     1     2   ar
     8     2    18    1
     9    18    19    1
    10    19    20    1
    11    20    21    1
    12    21    22    1
    13    22    23    1
    14     2     3   ar
    15     3     4   ar
    16     4     5   ar
    17     5     6   ar
    18     6     7   ar
    19     7     8   ar
    20     8     9   ar
    21    15    16   ar
    22    16    17   ar
    23    17    12   ar
    24     9     1   ar
    25    23    19    1
    26     9     4   ar
@<TRIPOS>MOLECULE
*****
 23 26 0 0 0
SMALL
GASTEIGER

@<TRIPOS>ATOM
      1 N         140.8081  141.7213  166.4197 N.ar    1  UNL1       -0.3095
      2 C         141.8892  140.8049  165.9282 C.ar    1  UNL1        0.1370
      3 N         142.9662  140.7576  166.9711 N.ar    1  UNL1       -0.2295
      4 C         142.5508  141.6447  168.1072 C.ar    1  UNL1        0.0984
      5 C         143.2147  141.9871  169.4079 C.ar    1  UNL1        0.0206
      6 C         142.5449  142.9250  170.3678 C.ar    1  UNL1        0.0016
      7 C         141.2110  143.5206  170.0269 C.ar    1  UNL1        0.0016
      8 C         140.5471  143.1782  168.7262 C.ar    1  UNL1        0.0188
      9 C         141.2170  142.2403  167.7663 C.ar    1  UNL1        0.0789
     10 C         139.5406  142.0593  165.6922 C.3     1  UNL1        0.1339
     11 CL        139.5033  146.4630  161.6173 Cl      1  UNL1       -0.0822
     12 C         139.5126  145.3621  162.6360 C.ar    1  UNL1        0.0577
     13 C         140.7842  145.0124  163.3507 C.ar    1  UNL1        0.0111
     14 C         140.7935  143.9114  164.3694 C.ar    1  UNL1       -0.0015
     15 C         139.5312  143.1602  164.6735 C.ar    1  UNL1        0.0005
     16 C         138.2597  143.5100  163.9588 C.ar    1  UNL1       -0.0015
     17 C         138.2504  144.6109  162.9401 C.ar    1  UNL1        0.0111
     18 C         141.8926  140.0657  164.6230 C.3     1  UNL1        0.1371
     19 N         140.7640  139.1378  164.2836 N.3     1  UNL1       -0.2664
     20 C         140.2556  138.8351  162.9053 C.3     1  UNL1        0.0725
     21 C         139.1229  137.8598  163.0328 C.3     1  UNL1        0.0188
     22 C         138.9314  137.5598  164.4900 C.3     1  UNL1        0.0188
     23 C         139.9456  138.3496  165.2631 C.3     1  UNL1        0.0725
@<TRIPOS>BOND
     1    11    12    1
     2    12    13   ar
     3    13    14   ar
     4    14    15   ar
     5    15    10    1
     6    10     1    1
     7     1     2   ar
     8     2    18    1
     9    18    19    1
    10    19    20    1
    11    20    21    1
    12    21    22    1
    13    22    23    1
    14     2     3   ar
    15     3     4   ar
    16     4     5   ar
    17     5     6   ar
    18     6     7   ar
    19     7     8   ar
    20     8     9   ar
    21    15    16   ar
    22    16    17   ar
    23    17    12   ar
    24     9     1   ar
    25    23    19    1
    26     9     4   ar
@<TRIPOS>MOLECULE
*****
 23 26 0 0 0
SMALL
GASTEIGER

@<TRIPOS>ATOM
      1 N         141.3149  139.8745  166.3940 N.ar    1  UNL1       -0.3095
      2 C         142.7480  139.4420  166.4891 C.ar    1  UNL1        0.1370
      3 N         143.0872  139.2780  167.9410 N.ar    1  UNL1       -0.2295
      4 C         141.8637  139.6092  168.7432 C.ar    1  UNL1        0.0984
      5 C         141.6056  139.6226  170.2207 C.ar    1  UNL1        0.0206
      6 C         140.2521  140.0047  170.7421 C.ar    1  UNL1        0.0016
      7 C         139.1567  140.3734  169.7859 C.ar    1  UNL1        0.0016
      8 C         139.4148  140.3600  168.3084 C.ar    1  UNL1        0.0188
      9 C         140.7684  139.9778  167.7871 C.ar    1  UNL1        0.0789
     10 C         140.5607  140.1546  165.1280 C.3     1  UNL1        0.1339
     11 CL        140.8552  145.5877  162.5994 Cl      1  UNL1       -0.0822
     12 C         140.7816  144.2295  163.2316 C.ar    1  UNL1        0.0577
     13 C         141.1153  143.0085  162.4266 C.ar    1  UNL1        0.0111
     14 C         141.0416  141.6502  163.0588 C.ar    1  UNL1       -0.0015
     15 C         140.6343  141.5128  164.4959 C.ar    1  UNL1        0.0005
     16 C         140.3006  142.7338  165.3008 C.ar    1  UNL1       -0.0015
     17 C         140.3742  144.0921  164.6686 C.ar    1  UNL1        0.0111
     18 C         143.6786  139.2136  165.3350 C.3     1  UNL1        0.1371
     19 N         144.1846  140.3790  164.5377 N.3     1  UNL1       -0.2664
     20 C         144.1653  141.8161  164.9671 C.3     1  UNL1        0.0725
     21 C         144.7676  142.6372  163.8656 C.3     1  UNL1        0.0188
     22 C         145.1593  141.7074  162.7555 C.3     1  UNL1        0.0188
     23 C         144.7990  140.3118  163.1708 C.3     1  UNL1        0.0725
@<TRIPOS>BOND
     1    11    12    1
     2    12    13   ar
     3    13    14   ar
     4    14    15   ar
     5    15    10    1
     6    10     1    1
     7     1     2   ar
     8     2    18    1
     9    18    19    1
    10    19    20    1
    11    20    21    1
    12    21    22    1
    13    22    23    1
    14     2     3   ar
    15     3     4   ar
    16     4     5   ar
    17     5     6   ar
    18     6     7   ar
    19     7     8   ar
    20     8     9   ar
    21    15    16   ar
    22    16    17   ar
    23    17    12   ar
    24     9     1   ar
    25    23    19    1
    26     9     4   ar
@<TRIPOS>MOLECULE
*****
 23 26 0 0 0
SMALL
GASTEIGER

@<TRIPOS>ATOM
      1 N         141.3777  141.5743  164.5651 N.ar    1  UNL1       -0.3095
      2 C         140.8456  140.5169  163.6438 C.ar    1  UNL1        0.1370
      3 N         141.9811  140.0281  162.7943 N.ar    1  UNL1       -0.2295
      4 C         143.2150  140.7834  163.1906 C.ar    1  UNL1        0.0984
      5 C         144.6300  140.7245  162.6962 C.ar    1  UNL1        0.0206
      6 C         145.6720  141.6211  163.2963 C.ar    1  UNL1        0.0016
      7 C         145.2991  142.5767  164.3908 C.ar    1  UNL1        0.0016
      8 C         143.8841  142.6357  164.8851 C.ar    1  UNL1        0.0188
      9 C         142.8421  141.7390  164.2850 C.ar    1  UNL1        0.0789
     10 C         140.5847  142.3337  165.5870 C.3     1  UNL1        0.1339
     11 CL        140.9587  140.8446  171.3872 Cl      1  UNL1       -0.0822
     12 C         140.8652  141.2169  169.9372 C.ar    1  UNL1        0.0577
     13 C         141.1387  140.1887  168.8798 C.ar    1  UNL1        0.0111
     14 C         141.0452  140.5610  167.4297 C.ar    1  UNL1       -0.0015
     15 C         140.6782  141.9615  167.0370 C.ar    1  UNL1        0.0005
     16 C         140.4047  142.9896  168.0945 C.ar    1  UNL1       -0.0015
     17 C         140.4982  142.6173  169.5445 C.ar    1  UNL1        0.0111
     18 C         139.4270  140.0333  163.5827 C.3     1  UNL1        0.1371
     19 N         138.8853  139.1584  164.6740 N.3     1  UNL1       -0.2664
     20 C         138.0826  139.6171  165.8553 C.3     1  UNL1        0.0725
     21 C         137.7523  138.4133  166.6870 C.3     1  UNL1        0.0188
     22 C         138.3509  137.2105  166.0198 C.3     1  UNL1        0.0188
     23 C         139.0510  137.6710  164.7757 C.3     1  UNL1        0.0725
@<TRIPOS>BOND
     1    11    12    1
     2    12    13   ar
     3    13    14   ar
     4    14    15   ar
     5    15    10    1
     6    10     1    1
     7     1     2   ar
     8     2    18    1
     9    18    19    1
    10    19    20    1
    11    20    21    1
    12    21    22    1
    13    22    23    1
    14     2     3   ar
    15     3     4   ar
    16     4     5   ar
    17     5     6   ar
    18     6     7   ar
    19     7     8   ar
    20     8     9   ar
    21    15    16   ar
    22    16    17   ar
    23    17    12   ar
    24     9     1   ar
    25    23    19    1
    26     9     4   ar
@<TRIPOS>MOLECULE
*****
 23 26 0 0 0
SMALL
GASTEIGER

@<TRIPOS>ATOM
      1 N         140.5016  140.7992  166.6089 N.ar    1  UNL1       -0.3095
      2 C         139.2288  140.0423  166.8477 C.ar    1  UNL1        0.1370
      3 N         139.2140  139.6011  168.2813 N.ar    1  UNL1       -0.2295
      4 C         140.4776  140.0854  168.9284 C.ar    1  UNL1        0.0984
      5 C         141.0063  139.9477  170.3254 C.ar    1  UNL1        0.0206
      6 C         142.3309  140.5506  170.6887 C.ar    1  UNL1        0.0016
      7 C         143.1267  141.2911  169.6550 C.ar    1  UNL1        0.0016
      8 C         142.5979  141.4287  168.2581 C.ar    1  UNL1        0.0188
      9 C         141.2734  140.8259  167.8948 C.ar    1  UNL1        0.0789
     10 C         140.9278  141.4205  165.3118 C.3     1  UNL1        0.1339
     11 CL        143.9665  138.1725  161.2848 Cl      1  UNL1       -0.0822
     12 C         143.2068  138.9845  162.2916 C.ar    1  UNL1        0.0577
     13 C         142.3246  140.1089  161.8363 C.ar    1  UNL1        0.0111
     14 C         141.5649  140.9209  162.8431 C.ar    1  UNL1       -0.0015
     15 C         141.6875  140.6085  164.3051 C.ar    1  UNL1        0.0005
     16 C         142.5698  139.4840  164.7603 C.ar    1  UNL1       -0.0015
     17 C         143.3294  138.6721  163.7535 C.ar    1  UNL1        0.0111
     18 C         138.1588  139.7736  165.8314 C.3     1  UNL1        0.1371
     19 N         138.5091  139.1170  164.5291 N.3     1  UNL1       -0.2664
     20 C         139.2968  137.8512  164.3637 C.3     1  UNL1        0.0725
     21 C         139.4078  137.5628  162.8958 C.3     1  UNL1        0.0188
     22 C         138.6887  138.6503  162.1540 C.3     1  UNL1        0.0188
     23 C         138.1333  139.6108  163.1634 C.3     1  UNL1        0.0725
@<TRIPOS>BOND
     1    11    12    1
     2    12    13   ar
     3    13    14   ar
     4    14    15   ar
     5    15    10    1
     6    10     1    1
     7     1     2   ar
     8     2    18    1
     9    18    19    1
    10    19    20    1
    11    20    21    1
    12    21    22    1
    13    22    23    1
    14     2     3   ar
    15     3     4   ar
    16     4     5   ar
    17     5     6   ar
    18     6     7   ar
    19     7     8   ar
    20     8     9   ar
    21    15    16   ar
    22    16    17   ar
    23    17    12   ar
    24     9     1   ar
    25    23    19    1
    26     9     4   ar
@<TRIPOS>MOLECULE
*****
 23 26 0 0 0
SMALL
GASTEIGER

@<TRIPOS>ATOM
      1 N         140.9624  139.4367  166.5725 N.ar    1  UNL1       -0.3095
      2 C         142.4342  139.1599  166.4881 C.ar    1  UNL1        0.1370
      3 N         143.0253  139.3762  167.8496 N.ar    1  UNL1       -0.2295
      4 C         141.9189  139.7867  168.7755 C.ar    1  UNL1        0.0984
      5 C         141.9076  140.1313  170.2353 C.ar    1  UNL1        0.0206
      6 C         140.6213  140.5134  170.9058 C.ar    1  UNL1        0.0016
      7 C         139.3464  140.5508  170.1164 C.ar    1  UNL1        0.0016
      8 C         139.3576  140.2062  168.6566 C.ar    1  UNL1        0.0188
      9 C         140.6439  139.8242  167.9861 C.ar    1  UNL1        0.0789
     10 C         139.9813  139.3427  165.4417 C.3     1  UNL1        0.1339
     11 CL        137.5221  144.3267  163.1807 Cl      1  UNL1       -0.0822
     12 C         138.1370  143.0807  163.7460 C.ar    1  UNL1        0.0577
     13 C         137.5927  141.7361  163.3641 C.ar    1  UNL1        0.0111
     14 C         138.2075  140.4901  163.9294 C.ar    1  UNL1       -0.0015
     15 C         139.3666  140.5887  164.8765 C.ar    1  UNL1        0.0005
     16 C         139.9108  141.9333  165.2583 C.ar    1  UNL1       -0.0015
     17 C         139.2960  143.1793  164.6930 C.ar    1  UNL1        0.0111
     18 C         143.1833  138.7403  165.2581 C.3     1  UNL1        0.1371
     19 N         143.7209  139.7774  164.3171 N.3     1  UNL1       -0.2664
     20 C         142.9180  140.5770  163.3343 C.3     1  UNL1        0.0725
     21 C         143.8567  141.4908  162.6034 C.3     1  UNL1        0.0188
     22 C         145.2397  141.2559  163.1347 C.3     1  UNL1        0.0188
     23 C         145.1558  140.1970  164.1938 C.3     1  UNL1        0.0725
@<TRIPOS>BOND
     1    11    12    1
     2    12    13   ar
     3    13    14   ar
     4    14    15   ar
     5    15    10    1
     6    10     1    1
     7     1     2   ar
     8     2    18    1
     9    18    19    1
    10    19    20    1
    11    20    21    1
    12    21    22    1
    13    22    23    1
    14     2     3   ar
    15     3     4   ar
    16     4     5   ar
    17     5     6   ar
    18     6     7   ar
    19     7     8   ar
    20     8     9   ar
    21    15    16   ar
    22    16    17   ar
    23    17    12   ar
    24     9     1   ar
    25    23    19    1
    26     9     4   ar
