@<TRIPOS>MOLECULE
*****
 30 33 0 0 0
SMALL
GASTEIGER

@<TRIPOS>ATOM
      1 C         141.4897  140.1259  167.7405 C.3     1  UNL1        0.2959
      2 N         140.3866  140.1284  168.7569 N.2     1  UNL1       -0.2191
      3 C         141.0007  139.9106  170.1080 C.2     1  UNL1        0.1399
      4 C         140.2619  139.8421  171.4117 C.3     1  UNL1        0.0598
      5 C         142.4834  139.7735  169.9266 C.2     1  UNL1        0.3289
      6 N         143.4875  139.5436  171.0170 N.pl3   1  UNL1       -0.2454
      7 N         142.7856  139.9065  168.4634 N.2     1  UNL1       -0.0404
      8 H         143.1900  139.4697  171.9525 H       1  UNL1        0.2885
      9 H         144.4440  139.4667  170.7971 H       1  UNL1        0.2885
     10 C         144.1004  140.2617  164.0778 C.ar    1  UNL1        0.1347
     11 C         143.3641  139.0026  164.4277 C.ar    1  UNL1        0.0365
     12 C         142.4938  138.9573  165.6486 C.ar    1  UNL1        0.0051
     13 C         142.3599  140.1711  166.5196 C.ar    1  UNL1        0.0478
     14 C         143.0963  141.4302  166.1697 C.ar    1  UNL1        0.0008
     15 C         143.9665  141.4755  164.9488 C.ar    1  UNL1        0.0120
     16 C         144.7029  142.7347  164.5989 C.3     1  UNL1        0.0342
     17 C         144.3542  140.5006  161.5032 C.3     1  UNL1        0.2525
     18 O         144.9706  140.3070  162.8568 O.3     1  UNL1       -0.4717
     19 C         140.3757  140.3547  166.7624 C.ar    1  UNL1        0.0479
     20 C         139.2764  139.3432  166.6276 C.ar    1  UNL1        0.0021
     21 C         138.1625  139.5721  165.6495 C.ar    1  UNL1       -0.0001
     22 C         138.1479  140.8124  164.8061 C.ar    1  UNL1        0.0001
     23 C         139.2472  141.8239  164.9409 C.ar    1  UNL1        0.0029
     24 C         140.3612  141.5951  165.9190 C.ar    1  UNL1        0.0022
     25 C         139.2326  143.0643  164.0975 C.ar    1  UNL1        0.0384
     26 C         137.9864  143.4550  163.3597 C.ar    1  UNL1        0.1022
     27 N         137.9719  144.6954  162.5164 N.ar    1  UNL1       -0.2224
     28 C         139.2035  145.5451  162.4108 C.ar    1  UNL1        0.1989
     29 N         140.4497  145.1544  163.1486 N.ar    1  UNL1       -0.2224
     30 C         140.4643  143.9140  163.9920 C.ar    1  UNL1        0.1022
@<TRIPOS>BOND
     1    17    18    1
     2    18    10    1
     3    10    11   ar
     4    11    12   ar
     5    12    13   ar
     6    13     1    1
     7     1    19    1
     8    19    20   ar
     9    20    21   ar
    10    21    22   ar
    11    22    23   ar
    12    23    25    1
    13    25    26   ar
    14    26    27   ar
    15    27    28   ar
    16    28    29   ar
    17    29    30   ar
    18    23    24   ar
    19     1     2    1
    20     2     3    2
    21     3     4    1
    22     3     5    1
    23     5     6    1
    24     5     7    2
    25    13    14   ar
    26    14    15   ar
    27    15    16    1
    28    15    10   ar
    29     7     1    1
    30    24    19   ar
    31    30    25   ar
    32     6     8    1
    33     6     9    1
@<TRIPOS>MOLECULE
*****
 30 33 0 0 0
SMALL
GASTEIGER

@<TRIPOS>ATOM
      1 C         141.5810  141.3549  167.7340 C.3     1  UNL1        0.2959
      2 N         141.6617  140.2658  168.7623 N.2     1  UNL1       -0.2191
      3 C         142.7541  140.6197  169.7275 C.2     1  UNL1        0.1399
      4 C         143.1777  139.8083  170.9158 C.3     1  UNL1        0.0598
      5 C         143.3484  141.9275  169.2957 C.2     1  UNL1        0.3289
      6 N         144.4707  142.6535  169.9765 N.pl3   1  UNL1       -0.2454
      7 N         142.6234  142.3819  168.0637 N.2     1  UNL1       -0.0404
      8 H         144.8848  142.2727  170.7844 H       1  UNL1        0.2885
      9 H         144.7931  143.5107  169.6154 H       1  UNL1        0.2885
     10 C         140.6440  144.0979  164.2920 C.ar    1  UNL1        0.1347
     11 C         141.9136  143.2992  164.2904 C.ar    1  UNL1        0.0365
     12 C         142.2259  142.3848  165.4377 C.ar    1  UNL1        0.0051
     13 C         141.2686  142.2692  166.5867 C.ar    1  UNL1        0.0478
     14 C         139.9990  143.0679  166.5883 C.ar    1  UNL1        0.0008
     15 C         139.6867  143.9822  165.4409 C.ar    1  UNL1        0.0120
     16 C         138.4169  144.7809  165.4426 C.3     1  UNL1        0.0342
     17 C         139.7363  144.4579  161.8844 C.3     1  UNL1        0.2525
     18 O         140.3316  145.0122  163.1446 O.3     1  UNL1       -0.4717
     19 C         140.4733  140.5190  167.1645 C.ar    1  UNL1        0.0479
     20 C         139.3459  140.0673  168.0448 C.ar    1  UNL1        0.0021
     21 C         138.2383  139.2315  167.4752 C.ar    1  UNL1       -0.0001
     22 C         138.2579  138.8473  166.0254 C.ar    1  UNL1        0.0001
     23 C         139.3853  139.2990  165.1451 C.ar    1  UNL1        0.0029
     24 C         140.4930  140.1349  165.7146 C.ar    1  UNL1        0.0022
     25 C         139.4050  138.9149  163.6953 C.ar    1  UNL1        0.0384
     26 C         140.5287  138.0806  163.1556 C.ar    1  UNL1        0.1022
     27 N         140.5484  137.6965  161.7058 N.ar    1  UNL1       -0.2224
     28 C         139.4443  138.1467  160.7955 C.ar    1  UNL1        0.1989
     29 N         138.3206  138.9810  161.3352 N.ar    1  UNL1       -0.2224
     30 C         138.3009  139.3651  162.7851 C.ar    1  UNL1        0.1022
@<TRIPOS>BOND
     1    17    18    1
     2    18    10    1
     3    10    11   ar
     4    11    12   ar
     5    12    13   ar
     6    13     1    1
     7     1    19    1
     8    19    20   ar
     9    20    21   ar
    10    21    22   ar
    11    22    23   ar
    12    23    25    1
    13    25    26   ar
    14    26    27   ar
    15    27    28   ar
    16    28    29   ar
    17    29    30   ar
    18    23    24   ar
    19     1     2    1
    20     2     3    2
    21     3     4    1
    22     3     5    1
    23     5     6    1
    24     5     7    2
    25    13    14   ar
    26    14    15   ar
    27    15    16    1
    28    15    10   ar
    29     7     1    1
    30    24    19   ar
    31    30    25   ar
    32     6     8    1
    33     6     9    1
@<TRIPOS>MOLECULE
*****
 30 33 0 0 0
SMALL
GASTEIGER

@<TRIPOS>ATOM
      1 C         140.6915  141.1571  167.3497 C.3     1  UNL1        0.2959
      2 N         140.7868  142.3219  168.2899 N.2     1  UNL1       -0.2191
      3 C         139.9822  141.9969  169.5135 C.2     1  UNL1        0.1399
      4 C         139.8018  142.8822  170.7109 C.3     1  UNL1        0.0598
      5 C         139.3898  140.6312  169.3295 C.2     1  UNL1        0.3289
      6 N         138.5130  139.9110  170.3105 N.pl3   1  UNL1       -0.2454
      7 N         139.8282  140.1121  167.9922 N.2     1  UNL1       -0.0404
      8 H         138.2794  140.3368  171.1669 H       1  UNL1        0.2885
      9 H         138.1711  139.0126  170.0981 H       1  UNL1        0.2885
     10 C         140.9590  138.1881  163.9787 C.ar    1  UNL1        0.1347
     11 C         142.1078  138.3485  164.9298 C.ar    1  UNL1        0.0365
     12 C         142.0186  139.3382  166.0534 C.ar    1  UNL1        0.0051
     13 C         140.7807  140.1674  166.2260 C.ar    1  UNL1        0.0478
     14 C         139.6319  140.0070  165.2750 C.ar    1  UNL1        0.0008
     15 C         139.7211  139.0173  164.1513 C.ar    1  UNL1        0.0120
     16 C         138.5722  138.8569  163.2002 C.3     1  UNL1        0.0342
     17 C         141.6702  137.5991  161.5503 C.3     1  UNL1        0.2525
     18 O         141.0482  137.1984  162.8550 O.3     1  UNL1       -0.4717
     19 C         141.5735  141.9951  166.4723 C.ar    1  UNL1        0.0479
     20 C         143.0301  142.1450  166.7975 C.ar    1  UNL1        0.0021
     21 C         143.9121  142.9830  165.9201 C.ar    1  UNL1       -0.0001
     22 C         143.3375  143.6711  164.7175 C.ar    1  UNL1        0.0001
     23 C         141.8809  143.5211  164.3922 C.ar    1  UNL1        0.0029
     24 C         140.9989  142.6831  165.2696 C.ar    1  UNL1        0.0022
     25 C         141.3063  144.2092  163.1896 C.ar    1  UNL1        0.0384
     26 C         142.1309  144.3582  161.9454 C.ar    1  UNL1        0.1022
     27 N         141.5563  145.0462  160.7427 N.ar    1  UNL1       -0.2224
     28 C         140.1570  145.5853  160.7842 C.ar    1  UNL1        0.1989
     29 N         139.3325  145.4364  162.0284 N.ar    1  UNL1       -0.2224
     30 C         139.9072  144.7483  163.2311 C.ar    1  UNL1        0.1022
@<TRIPOS>BOND
     1    17    18    1
     2    18    10    1
     3    10    11   ar
     4    11    12   ar
     5    12    13   ar
     6    13     1    1
     7     1    19    1
     8    19    20   ar
     9    20    21   ar
    10    21    22   ar
    11    22    23   ar
    12    23    25    1
    13    25    26   ar
    14    26    27   ar
    15    27    28   ar
    16    28    29   ar
    17    29    30   ar
    18    23    24   ar
    19     1     2    1
    20     2     3    2
    21     3     4    1
    22     3     5    1
    23     5     6    1
    24     5     7    2
    25    13    14   ar
    26    14    15   ar
    27    15    16    1
    28    15    10   ar
    29     7     1    1
    30    24    19   ar
    31    30    25   ar
    32     6     8    1
    33     6     9    1
@<TRIPOS>MOLECULE
*****
 30 33 0 0 0
SMALL
GASTEIGER

@<TRIPOS>ATOM
      1 C         139.9704  141.4937  167.0759 C.3     1  UNL1        0.2959
      2 N         140.3370  142.6412  167.9697 N.2     1  UNL1       -0.2191
      3 C         140.2493  142.1684  169.3906 C.2     1  UNL1        0.1399
      4 C         140.5327  142.9909  170.6125 C.3     1  UNL1        0.0598
      5 C         139.8284  140.7287  169.3749 C.2     1  UNL1        0.3289
      6 N         139.6171  139.8589  170.5785 N.pl3   1  UNL1       -0.2454
      7 N         139.6561  140.3117  167.9444 N.2     1  UNL1       -0.0404
      8 H         139.7561  140.2256  171.4815 H       1  UNL1        0.2885
      9 H         139.3393  138.9211  170.4655 H       1  UNL1        0.2885
     10 C         139.0264  138.6690  163.7025 C.ar    1  UNL1        0.1347
     11 C         138.1542  139.8648  163.9457 C.ar    1  UNL1        0.0365
     12 C         138.4688  140.8064  165.0702 C.ar    1  UNL1        0.0051
     13 C         139.6557  140.5521  165.9515 C.ar    1  UNL1        0.0478
     14 C         140.5279  139.3563  165.7082 C.ar    1  UNL1        0.0008
     15 C         140.2132  138.4148  164.5837 C.ar    1  UNL1        0.0120
     16 C         141.0855  137.2189  164.3405 C.3     1  UNL1        0.0342
     17 C         139.1537  138.0523  161.1819 C.3     1  UNL1        0.2525
     18 O         138.7117  137.7275  162.5780 O.3     1  UNL1       -0.4717
     19 C         140.2189  142.4788  165.9724 C.ar    1  UNL1        0.0479
     20 C         139.3531  143.6971  165.8454 C.ar    1  UNL1        0.0021
     21 C         139.6016  144.6821  164.7419 C.ar    1  UNL1       -0.0001
     22 C         140.7160  144.4489  163.7653 C.ar    1  UNL1        0.0001
     23 C         141.5818  143.2307  163.8922 C.ar    1  UNL1        0.0029
     24 C         141.3333  142.2456  164.9958 C.ar    1  UNL1        0.0022
     25 C         142.6962  142.9976  162.9156 C.ar    1  UNL1        0.0384
     26 C         143.9163  142.2342  163.3381 C.ar    1  UNL1        0.1022
     27 N         145.0307  142.0010  162.3615 N.ar    1  UNL1       -0.2224
     28 C         144.9249  142.5313  160.9623 C.ar    1  UNL1        0.1989
     29 N         143.7048  143.2947  160.5397 N.ar    1  UNL1       -0.2224
     30 C         142.5904  143.5278  161.5164 C.ar    1  UNL1        0.1022
@<TRIPOS>BOND
     1    17    18    1
     2    18    10    1
     3    10    11   ar
     4    11    12   ar
     5    12    13   ar
     6    13     1    1
     7     1    19    1
     8    19    20   ar
     9    20    21   ar
    10    21    22   ar
    11    22    23   ar
    12    23    25    1
    13    25    26   ar
    14    26    27   ar
    15    27    28   ar
    16    28    29   ar
    17    29    30   ar
    18    23    24   ar
    19     1     2    1
    20     2     3    2
    21     3     4    1
    22     3     5    1
    23     5     6    1
    24     5     7    2
    25    13    14   ar
    26    14    15   ar
    27    15    16    1
    28    15    10   ar
    29     7     1    1
    30    24    19   ar
    31    30    25   ar
    32     6     8    1
    33     6     9    1
@<TRIPOS>MOLECULE
*****
 30 33 0 0 0
SMALL
GASTEIGER

@<TRIPOS>ATOM
      1 C         141.4658  142.5038  167.0094 C.3     1  UNL1        0.2959
      2 N         140.3485  142.6989  167.9909 N.2     1  UNL1       -0.2191
      3 C         140.9345  142.6727  169.3715 C.2     1  UNL1        0.1399
      4 C         140.1744  142.8302  170.6551 C.3     1  UNL1        0.0598
      5 C         142.4140  142.4614  169.2431 C.2     1  UNL1        0.3289
      6 N         143.3931  142.3705  170.3758 N.pl3   1  UNL1       -0.2454
      7 N         142.7423  142.3570  167.7833 N.2     1  UNL1       -0.0404
      8 H         143.0793  142.4515  171.3054 H       1  UNL1        0.2885
      9 H         144.3495  142.2297  170.1896 H       1  UNL1        0.2885
     10 C         144.1338  141.9879  163.4225 C.ar    1  UNL1        0.1347
     11 C         143.3262  143.2417  163.5824 C.ar    1  UNL1        0.0365
     12 C         142.4369  143.4137  164.7780 C.ar    1  UNL1        0.0051
     13 C         142.3551  142.3318  165.8137 C.ar    1  UNL1        0.0478
     14 C         143.1627  141.0780  165.6538 C.ar    1  UNL1        0.0008
     15 C         144.0520  140.9060  164.4582 C.ar    1  UNL1        0.0120
     16 C         144.8596  139.6521  164.2983 C.3     1  UNL1        0.0342
     17 C         144.7399  142.5771  160.9658 C.3     1  UNL1        0.2525
     18 O         145.0231  141.8159  162.2268 O.3     1  UNL1       -0.4717
     19 C         140.3752  142.6146  165.9855 C.ar    1  UNL1        0.0479
     20 C         139.6461  143.9128  165.8039 C.ar    1  UNL1        0.0021
     21 C         138.5555  144.0237  164.7800 C.ar    1  UNL1       -0.0001
     22 C         138.1940  142.8363  163.9378 C.ar    1  UNL1        0.0001
     23 C         138.9231  141.5381  164.1194 C.ar    1  UNL1        0.0029
     24 C         140.0137  141.4272  165.1432 C.ar    1  UNL1        0.0022
     25 C         138.5615  140.3507  163.2771 C.ar    1  UNL1        0.0384
     26 C         137.8115  140.5429  161.9924 C.ar    1  UNL1        0.1022
     27 N         137.4499  139.3555  161.1502 N.ar    1  UNL1       -0.2224
     28 C         137.8385  137.9758  161.5926 C.ar    1  UNL1        0.1989
     29 N         138.5886  137.7836  162.8773 N.ar    1  UNL1       -0.2224
     30 C         138.9501  138.9711  163.7196 C.ar    1  UNL1        0.1022
@<TRIPOS>BOND
     1    17    18    1
     2    18    10    1
     3    10    11   ar
     4    11    12   ar
     5    12    13   ar
     6    13     1    1
     7     1    19    1
     8    19    20   ar
     9    20    21   ar
    10    21    22   ar
    11    22    23   ar
    12    23    25    1
    13    25    26   ar
    14    26    27   ar
    15    27    28   ar
    16    28    29   ar
    17    29    30   ar
    18    23    24   ar
    19     1     2    1
    20     2     3    2
    21     3     4    1
    22     3     5    1
    23     5     6    1
    24     5     7    2
    25    13    14   ar
    26    14    15   ar
    27    15    16    1
    28    15    10   ar
    29     7     1    1
    30    24    19   ar
    31    30    25   ar
    32     6     8    1
    33     6     9    1
@<TRIPOS>MOLECULE
*****
 30 33 0 0 0
SMALL
GASTEIGER

@<TRIPOS>ATOM
      1 C         141.6141  140.8192  167.6237 C.3     1  UNL1        0.2959
      2 N         140.4133  140.7375  168.5189 N.2     1  UNL1       -0.2191
      3 C         140.8259  140.0487  169.7860 C.2     1  UNL1        0.1399
      4 C         139.9385  139.7555  170.9592 C.3     1  UNL1        0.0598
      5 C         142.2816  139.7048  169.6738 C.2     1  UNL1        0.3289
      6 N         143.1054  139.0071  170.7152 N.pl3   1  UNL1       -0.2454
      7 N         142.7688  140.1809  168.3374 N.2     1  UNL1       -0.0404
      8 H         142.6933  138.7317  171.5658 H       1  UNL1        0.2885
      9 H         144.0583  138.8246  170.5481 H       1  UNL1        0.2885
     10 C         144.6239  141.4940  164.3471 C.ar    1  UNL1        0.1347
     11 C         144.1460  140.1054  164.6521 C.ar    1  UNL1        0.0365
     12 C         143.1428  139.8804  165.7443 C.ar    1  UNL1        0.0051
     13 C         142.6174  141.0441  166.5315 C.ar    1  UNL1        0.0478
     14 C         143.0952  142.4328  166.2264 C.ar    1  UNL1        0.0008
     15 C         144.0985  142.6578  165.1342 C.ar    1  UNL1        0.0120
     16 C         144.5764  144.0466  164.8291 C.3     1  UNL1        0.0342
     17 C         145.1643  142.0721  161.8724 C.3     1  UNL1        0.2525
     18 O         145.6271  141.7190  163.2549 O.3     1  UNL1       -0.4717
     19 C         140.6692  141.5045  166.6815 C.ar    1  UNL1        0.0479
     20 C         140.2976  142.9405  166.9047 C.ar    1  UNL1        0.0021
     21 C         139.3527  143.6257  165.9626 C.ar    1  UNL1       -0.0001
     22 C         138.7795  142.8751  164.7973 C.ar    1  UNL1        0.0001
     23 C         139.1512  141.4391  164.5741 C.ar    1  UNL1        0.0029
     24 C         140.0960  140.7538  165.5163 C.ar    1  UNL1        0.0022
     25 C         138.5780  140.6885  163.4089 C.ar    1  UNL1        0.0384
     26 C         138.6255  139.1894  163.3857 C.ar    1  UNL1        0.1022
     27 N         138.0523  138.4387  162.2204 N.ar    1  UNL1       -0.2224
     28 C         137.4315  139.1871  161.0782 C.ar    1  UNL1        0.1989
     29 N         137.3839  140.6862  161.1013 N.ar    1  UNL1       -0.2224
     30 C         137.9572  141.4369  162.2667 C.ar    1  UNL1        0.1022
@<TRIPOS>BOND
     1    17    18    1
     2    18    10    1
     3    10    11   ar
     4    11    12   ar
     5    12    13   ar
     6    13     1    1
     7     1    19    1
     8    19    20   ar
     9    20    21   ar
    10    21    22   ar
    11    22    23   ar
    12    23    25    1
    13    25    26   ar
    14    26    27   ar
    15    27    28   ar
    16    28    29   ar
    17    29    30   ar
    18    23    24   ar
    19     1     2    1
    20     2     3    2
    21     3     4    1
    22     3     5    1
    23     5     6    1
    24     5     7    2
    25    13    14   ar
    26    14    15   ar
    27    15    16    1
    28    15    10   ar
    29     7     1    1
    30    24    19   ar
    31    30    25   ar
    32     6     8    1
    33     6     9    1
@<TRIPOS>MOLECULE
*****
 30 33 0 0 0
SMALL
GASTEIGER

@<TRIPOS>ATOM
      1 C         141.5537  141.5700  167.8203 C.3     1  UNL1        0.2959
      2 N         140.4622  141.7248  168.8375 N.2     1  UNL1       -0.2191
      3 C         141.0479  142.3889  170.0483 C.2     1  UNL1        0.1399
      4 C         140.3097  142.7364  171.3070 C.3     1  UNL1        0.0598
      5 C         142.5012  142.6446  169.7793 C.2     1  UNL1        0.3289
      6 N         143.4716  143.2926  170.7219 N.pl3   1  UNL1       -0.2454
      7 N         142.8139  142.1385  168.4024 N.2     1  UNL1       -0.0404
      8 H         143.1696  143.5932  171.6095 H       1  UNL1        0.2885
      9 H         144.4104  143.4173  170.4531 H       1  UNL1        0.2885
     10 C         144.1513  140.7116  164.2474 C.ar    1  UNL1        0.1347
     11 C         143.6250  139.5811  165.0809 C.ar    1  UNL1        0.0365
     12 C         142.7592  139.8672  166.2719 C.ar    1  UNL1        0.0051
     13 C         142.4196  141.2839  166.6293 C.ar    1  UNL1        0.0478
     14 C         142.9459  142.4144  165.7957 C.ar    1  UNL1        0.0008
     15 C         143.8118  142.1282  164.6048 C.ar    1  UNL1        0.0120
     16 C         144.3381  143.2588  163.7712 C.3     1  UNL1        0.0342
     17 C         144.3894  140.1025  161.7330 C.3     1  UNL1        0.2525
     18 O         145.0172  140.4255  163.0564 O.3     1  UNL1       -0.4717
     19 C         140.4746  140.9417  166.9892 C.ar    1  UNL1        0.0479
     20 C         139.6558  139.8165  167.5492 C.ar    1  UNL1        0.0021
     21 C         138.5768  139.1883  166.7181 C.ar    1  UNL1       -0.0001
     22 C         138.3164  139.6851  165.3270 C.ar    1  UNL1        0.0001
     23 C         139.1350  140.8103  164.7669 C.ar    1  UNL1        0.0029
     24 C         140.2142  141.4386  165.5980 C.ar    1  UNL1        0.0022
     25 C         138.8746  141.3071  163.3758 C.ar    1  UNL1        0.0384
     26 C         139.7227  142.4019  162.7993 C.ar    1  UNL1        0.1022
     27 N         139.4623  142.8987  161.4082 N.ar    1  UNL1       -0.2224
     28 C         138.3538  142.3009  160.5934 C.ar    1  UNL1        0.1989
     29 N         137.5056  141.2061  161.1699 N.ar    1  UNL1       -0.2224
     30 C         137.7661  140.7093  162.5611 C.ar    1  UNL1        0.1022
@<TRIPOS>BOND
     1    17    18    1
     2    18    10    1
     3    10    11   ar
     4    11    12   ar
     5    12    13   ar
     6    13     1    1
     7     1    19    1
     8    19    20   ar
     9    20    21   ar
    10    21    22   ar
    11    22    23   ar
    12    23    25    1
    13    25    26   ar
    14    26    27   ar
    15    27    28   ar
    16    28    29   ar
    17    29    30   ar
    18    23    24   ar
    19     1     2    1
    20     2     3    2
    21     3     4    1
    22     3     5    1
    23     5     6    1
    24     5     7    2
    25    13    14   ar
    26    14    15   ar
    27    15    16    1
    28    15    10   ar
    29     7     1    1
    30    24    19   ar
    31    30    25   ar
    32     6     8    1
    33     6     9    1
@<TRIPOS>MOLECULE
*****
 30 33 0 0 0
SMALL
GASTEIGER

@<TRIPOS>ATOM
      1 C         141.3107  140.3034  166.9818 C.3     1  UNL1        0.2959
      2 N         140.3957  140.9290  167.9925 N.2     1  UNL1       -0.2191
      3 C         141.0255  140.7758  169.3453 C.2     1  UNL1        0.1399
      4 C         140.4518  141.2582  170.6446 C.3     1  UNL1        0.0598
      5 C         142.3296  140.0555  169.1706 C.2     1  UNL1        0.3289
      6 N         143.2890  139.6912  170.2646 N.pl3   1  UNL1       -0.2454
      7 N         142.5059  139.7636  167.7099 N.2     1  UNL1       -0.0404
      8 H         143.0837  139.9273  171.1981 H       1  UNL1        0.2885
      9 H         144.1239  139.2161  170.0492 H       1  UNL1        0.2885
     10 C         143.3971  138.6949  163.3336 C.ar    1  UNL1        0.1347
     11 C         144.0955  139.6793  164.2241 C.ar    1  UNL1        0.0365
     12 C         143.4001  140.2155  165.4402 C.ar    1  UNL1        0.0051
     13 C         142.0061  139.7673  165.7657 C.ar    1  UNL1        0.0478
     14 C         141.3077  138.7829  164.8752 C.ar    1  UNL1        0.0008
     15 C         142.0032  138.2467  163.6591 C.ar    1  UNL1        0.0120
     16 C         141.3047  137.2623  162.7685 C.3     1  UNL1        0.0342
     17 C         144.0773  138.9420  160.8384 C.3     1  UNL1        0.2525
     18 O         144.0926  138.1588  162.1175 O.3     1  UNL1       -0.4717
     19 C         140.2609  140.7311  165.9994 C.ar    1  UNL1        0.0479
     20 C         138.9174  140.0640  165.9994 C.ar    1  UNL1        0.0021
     21 C         137.8677  140.4917  165.0171 C.ar    1  UNL1       -0.0001
     22 C         138.1614  141.5865  164.0348 C.ar    1  UNL1        0.0001
     23 C         139.5047  142.2537  164.0347 C.ar    1  UNL1        0.0029
     24 C         140.5545  141.8260  165.0171 C.ar    1  UNL1        0.0022
     25 C         139.7984  143.3486  163.0524 C.ar    1  UNL1        0.0384
     26 C         139.6535  144.7838  163.4635 C.ar    1  UNL1        0.1022
     27 N         139.9472  145.8787  162.4812 N.ar    1  UNL1       -0.2224
     28 C         140.3858  145.5383  161.0876 C.ar    1  UNL1        0.1989
     29 N         140.5307  144.1030  160.6765 N.ar    1  UNL1       -0.2224
     30 C         140.2370  143.0081  161.6589 C.ar    1  UNL1        0.1022
@<TRIPOS>BOND
     1    17    18    1
     2    18    10    1
     3    10    11   ar
     4    11    12   ar
     5    12    13   ar
     6    13     1    1
     7     1    19    1
     8    19    20   ar
     9    20    21   ar
    10    21    22   ar
    11    22    23   ar
    12    23    25    1
    13    25    26   ar
    14    26    27   ar
    15    27    28   ar
    16    28    29   ar
    17    29    30   ar
    18    23    24   ar
    19     1     2    1
    20     2     3    2
    21     3     4    1
    22     3     5    1
    23     5     6    1
    24     5     7    2
    25    13    14   ar
    26    14    15   ar
    27    15    16    1
    28    15    10   ar
    29     7     1    1
    30    24    19   ar
    31    30    25   ar
    32     6     8    1
    33     6     9    1
@<TRIPOS>MOLECULE
*****
 30 33 0 0 0
SMALL
GASTEIGER

@<TRIPOS>ATOM
      1 C         140.1668  140.3243  167.5180 C.3     1  UNL1        0.2959
      2 N         138.8904  139.7554  168.0631 N.2     1  UNL1       -0.2191
      3 C         138.8253  140.0810  169.5260 C.2     1  UNL1        0.1399
      4 C         137.7184  139.7029  170.4650 C.3     1  UNL1        0.0598
      5 C         140.0615  140.8512  169.8848 C.2     1  UNL1        0.3289
      6 N         140.4077  141.3785  171.2457 N.pl3   1  UNL1       -0.2454
      7 N         140.8906  141.0016  168.6439 N.2     1  UNL1       -0.0404
      8 H         139.7958  141.2281  172.0022 H       1  UNL1        0.2885
      9 H         141.2468  141.8749  171.3825 H       1  UNL1        0.2885
     10 C         143.6963  141.6648  165.0694 C.ar    1  UNL1        0.1347
     11 C         142.7364  142.6781  165.6188 C.ar    1  UNL1        0.0365
     12 C         141.5599  142.2312  166.4350 C.ar    1  UNL1        0.0051
     13 C         141.3433  140.7711  166.7018 C.ar    1  UNL1        0.0478
     14 C         142.3032  139.7579  166.1524 C.ar    1  UNL1        0.0008
     15 C         143.4797  140.2048  165.3362 C.ar    1  UNL1        0.0120
     16 C         144.4396  139.1914  164.7868 C.3     1  UNL1        0.0342
     17 C         144.6553  142.8396  162.9598 C.3     1  UNL1        0.2525
     18 O         144.8728  142.1117  164.2532 O.3     1  UNL1       -0.4717
     19 C         139.6890  139.7404  166.2215 C.ar    1  UNL1        0.0479
     20 C         139.3845  138.2748  166.1260 C.ar    1  UNL1        0.0021
     21 C         138.9067  137.6910  164.8296 C.ar    1  UNL1       -0.0001
     22 C         138.7335  138.5728  163.6286 C.ar    1  UNL1        0.0001
     23 C         139.0380  140.0384  163.7240 C.ar    1  UNL1        0.0029
     24 C         139.5158  140.6222  165.0205 C.ar    1  UNL1        0.0022
     25 C         138.8648  140.9201  162.5230 C.ar    1  UNL1        0.0384
     26 C         139.4046  140.4887  161.1917 C.ar    1  UNL1        0.1022
     27 N         139.2313  141.3705  159.9907 N.ar    1  UNL1       -0.2224
     28 C         138.5182  142.6838  160.1210 C.ar    1  UNL1        0.1989
     29 N         137.9784  143.1152  161.4524 N.ar    1  UNL1       -0.2224
     30 C         138.1517  142.2334  162.6534 C.ar    1  UNL1        0.1022
@<TRIPOS>BOND
     1    17    18    1
     2    18    10    1
     3    10    11   ar
     4    11    12   ar
     5    12    13   ar
     6    13     1    1
     7     1    19    1
     8    19    20   ar
     9    20    21   ar
    10    21    22   ar
    11    22    23   ar
    12    23    25    1
    13    25    26   ar
    14    26    27   ar
    15    27    28   ar
    16    28    29   ar
    17    29    30   ar
    18    23    24   ar
    19     1     2    1
    20     2     3    2
    21     3     4    1
    22     3     5    1
    23     5     6    1
    24     5     7    2
    25    13    14   ar
    26    14    15   ar
    27    15    16    1
    28    15    10   ar
    29     7     1    1
    30    24    19   ar
    31    30    25   ar
    32     6     8    1
    33     6     9    1
