@<TRIPOS>MOLECULE
*****
 34 38 0 0 0
SMALL
GASTEIGER

@<TRIPOS>ATOM
      1 C         139.7746  145.7753  160.5986 C.3     1  UNL1        0.0188
      2 C         140.4239  144.5085  160.1258 C.3     1  UNL1        0.0203
      3 C         139.6974  143.6024  159.1765 C.3     1  UNL1        0.0915
      4 N         138.4463  142.9021  159.6174 N.3     1  UNL1       -0.1789
      5 H         137.7625  143.6279  159.8318 H       1  UNL1        0.1488
      6 O         139.2967  140.9982  160.0073 O.2     1  UNL1       -0.1525
      7 S         138.4807  141.9774  160.7980 S.O2    1  UNL1        0.0659
      8 O         137.6647  142.9566  161.5888 O.2     1  UNL1       -0.1525
      9 C         138.5152  141.0527  161.9786 C.ar    1  UNL1        0.1514
     10 C         138.1563  141.4114  163.3902 C.ar    1  UNL1        0.0271
     11 C         138.3338  140.1874  164.2389 C.ar    1  UNL1        0.0079
     12 C         138.1293  139.9441  165.7049 C.ar    1  UNL1        0.0006
     13 C         138.3935  138.5857  166.2837 C.ar    1  UNL1        0.0000
     14 C         138.8621  137.4706  165.3966 C.ar    1  UNL1        0.0005
     15 C         139.0666  137.7139  163.9306 C.ar    1  UNL1        0.0065
     16 C         138.8024  139.0722  163.3518 C.ar    1  UNL1        0.0308
     17 S         138.9145  139.6071  161.9548 S.2     1  UNL1       -0.0673
     18 C         140.0184  146.2673  161.9945 C.3     1  UNL1        0.0721
     19 N         140.2912  145.2883  163.0978 N.3     1  UNL1       -0.2727
     20 C         141.6527  144.6741  163.2358 C.3     1  UNL1        0.0725
     21 C         141.9256  143.6952  164.3390 C.3     1  UNL1        0.0234
     22 C         140.8368  143.3304  165.3044 C.3     1  UNL1        0.0464
     23 C         139.4754  143.9446  165.1663 C.3     1  UNL1        0.0234
     24 C         139.2026  144.9236  164.0630 C.3     1  UNL1        0.0725
     25 C         141.1097  142.3515  166.4077 C.ar    1  UNL1        0.1003
     26 N         140.6141  142.4538  167.8197 N.ar    1  UNL1       -0.0814
     27 O         141.1242  141.2639  168.5773 O.2     1  UNL1       -0.3536
     28 C         141.9350  140.4262  167.6334 C.ar    1  UNL1        0.1787
     29 C         142.6802  139.1381  167.8218 C.ar    1  UNL1        0.0698
     30 C         143.4165  138.5223  166.6692 C.ar    1  UNL1        0.1433
     31 F         144.1618  137.2342  166.8575 F       1  UNL1       -0.2041
     32 C         143.4076  139.1944  165.3282 C.ar    1  UNL1        0.0299
     33 C         142.6623  140.4825  165.1399 C.ar    1  UNL1        0.0067
     34 C         141.9260  141.0983  166.2925 C.ar    1  UNL1        0.0540
@<TRIPOS>BOND
     1     6     7    2
     2     7     8    2
     3     7     4    1
     4     4     3    1
     5     3     2    1
     6     2     1    1
     7     1    18    1
     8    18    19    1
     9    19    20    1
    10    20    21    1
    11    21    22    1
    12    22    25    1
    13    25    26   ar
    14    26    27   ar
    15    27    28   ar
    16    28    29   ar
    17    29    30   ar
    18    30    31    1
    19    30    32   ar
    20    32    33   ar
    21    33    34   ar
    22    22    23    1
    23    23    24    1
    24     7     9    1
    25     9    10   ar
    26    10    11   ar
    27    11    12   ar
    28    12    13   ar
    29    13    14   ar
    30    14    15   ar
    31    15    16   ar
    32    16    17   ar
    33    24    19    1
    34    17     9   ar
    35    34    25   ar
    36    16    11   ar
    37    34    28   ar
    38     4     5    1
@<TRIPOS>MOLECULE
*****
 34 38 0 0 0
SMALL
GASTEIGER

@<TRIPOS>ATOM
      1 C         141.3731  144.5702  158.2077 C.3     1  UNL1        0.0188
      2 C         140.0983  144.0552  157.6080 C.3     1  UNL1        0.0203
      3 C         139.4165  142.8610  158.2072 C.3     1  UNL1        0.0915
      4 N         138.5075  143.0305  159.3883 N.3     1  UNL1       -0.1789
      5 H         138.6519  143.9780  159.7374 H       1  UNL1        0.1488
      6 O         137.6799  142.9764  161.3408 O.2     1  UNL1       -0.1525
      7 S         138.6304  142.1113  160.5673 S.O2    1  UNL1        0.0659
      8 O         139.5808  141.2462  159.7938 O.2     1  UNL1       -0.1525
      9 C         138.7532  141.1921  161.7463 C.ar    1  UNL1        0.1514
     10 C         139.5809  139.9426  161.8076 C.ar    1  UNL1        0.0271
     11 C         139.4092  139.3393  163.1701 C.ar    1  UNL1        0.0079
     12 C         139.9824  138.1049  163.8008 C.ar    1  UNL1        0.0006
     13 C         139.6219  137.7472  165.2122 C.ar    1  UNL1        0.0000
     14 C         138.6881  138.6238  165.9930 C.ar    1  UNL1        0.0005
     15 C         138.1148  139.8582  165.3622 C.ar    1  UNL1        0.0065
     16 C         138.4754  140.2158  163.9509 C.ar    1  UNL1        0.0308
     17 S         138.0700  141.3610  163.0709 S.2     1  UNL1       -0.0673
     18 C         141.3414  145.3222  159.5052 C.3     1  UNL1        0.0721
     19 N         141.3451  144.5746  160.8056 N.3     1  UNL1       -0.2727
     20 C         140.5020  145.0550  161.9494 C.3     1  UNL1        0.0725
     21 C         140.5057  144.3074  163.2498 C.3     1  UNL1        0.0234
     22 C         141.3527  143.0793  163.4065 C.3     1  UNL1        0.0464
     23 C         142.1958  142.5989  162.2627 C.3     1  UNL1        0.0234
     24 C         142.1921  143.3465  160.9623 C.3     1  UNL1        0.0725
     25 C         141.3564  142.3317  164.7069 C.ar    1  UNL1        0.1003
     26 N         140.5931  142.7076  165.9422 N.ar    1  UNL1       -0.0814
     27 O         140.8891  141.6851  166.9990 O.2     1  UNL1       -0.3536
     28 C         141.8353  140.6773  166.4169 C.ar    1  UNL1        0.1787
     29 C         142.4713  139.4474  166.9938 C.ar    1  UNL1        0.0698
     30 C         143.3961  138.6171  166.1540 C.ar    1  UNL1        0.1433
     31 F         144.0321  137.3871  166.7309 F       1  UNL1       -0.2041
     32 C         143.6849  139.0167  164.7374 C.ar    1  UNL1        0.0299
     33 C         143.0490  140.2466  164.1605 C.ar    1  UNL1        0.0067
     34 C         142.1242  141.0769  165.0003 C.ar    1  UNL1        0.0540
@<TRIPOS>BOND
     1     6     7    2
     2     7     8    2
     3     7     4    1
     4     4     3    1
     5     3     2    1
     6     2     1    1
     7     1    18    1
     8    18    19    1
     9    19    20    1
    10    20    21    1
    11    21    22    1
    12    22    25    1
    13    25    26   ar
    14    26    27   ar
    15    27    28   ar
    16    28    29   ar
    17    29    30   ar
    18    30    31    1
    19    30    32   ar
    20    32    33   ar
    21    33    34   ar
    22    22    23    1
    23    23    24    1
    24     7     9    1
    25     9    10   ar
    26    10    11   ar
    27    11    12   ar
    28    12    13   ar
    29    13    14   ar
    30    14    15   ar
    31    15    16   ar
    32    16    17   ar
    33    24    19    1
    34    17     9   ar
    35    34    25   ar
    36    16    11   ar
    37    34    28   ar
    38     4     5    1
@<TRIPOS>MOLECULE
*****
 34 38 0 0 0
SMALL
GASTEIGER

@<TRIPOS>ATOM
      1 C         144.3212  142.4068  161.0236 C.3     1  UNL1        0.0188
      2 C         143.1140  142.9532  160.3206 C.3     1  UNL1        0.0203
      3 C         142.2879  144.0232  160.9706 C.3     1  UNL1        0.0915
      4 N         140.8241  143.7991  161.2100 N.3     1  UNL1       -0.1789
      5 H         140.4514  144.6691  161.5902 H       1  UNL1        0.1488
      6 O         139.8435  141.9367  160.9461 O.2     1  UNL1       -0.1525
      7 S         140.3736  142.6987  162.1244 S.O2    1  UNL1        0.0659
      8 O         140.9037  143.4608  163.3026 O.2     1  UNL1       -0.1525
      9 C         139.9230  141.5984  163.0388 C.ar    1  UNL1        0.1514
     10 C         139.5381  141.7521  164.4804 C.ar    1  UNL1        0.0271
     11 C         139.1554  140.3998  165.0047 C.ar    1  UNL1        0.0079
     12 C         138.6910  139.9415  166.3554 C.ar    1  UNL1        0.0006
     13 C         138.3750  138.4938  166.5884 C.ar    1  UNL1        0.0000
     14 C         138.5233  137.5044  165.4709 C.ar    1  UNL1        0.0005
     15 C         138.9877  137.9627  164.1202 C.ar    1  UNL1        0.0065
     16 C         139.3038  139.4104  163.8871 C.ar    1  UNL1        0.0308
     17 S         139.7781  140.1511  162.6721 S.2     1  UNL1       -0.0673
     18 C         144.2865  141.0269  161.6108 C.3     1  UNL1        0.0721
     19 N         143.8547  140.8278  163.0334 N.3     1  UNL1       -0.2727
     20 C         143.9624  141.9570  164.0149 C.3     1  UNL1        0.0725
     21 C         143.5307  141.7579  165.4376 C.3     1  UNL1        0.0234
     22 C         142.9913  140.4295  165.8788 C.3     1  UNL1        0.0464
     23 C         142.8837  139.3004  164.8973 C.3     1  UNL1        0.0234
     24 C         143.3154  139.4995  163.4746 C.3     1  UNL1        0.0725
     25 C         142.5596  140.2304  167.3015 C.ar    1  UNL1        0.1003
     26 N         142.9040  139.0580  168.1715 N.ar    1  UNL1       -0.0814
     27 O         142.2649  139.2718  169.5116 O.2     1  UNL1       -0.3536
     28 C         141.5255  140.5763  169.4698 C.ar    1  UNL1        0.1787
     29 C         140.7099  141.3011  170.4990 C.ar    1  UNL1        0.0698
     30 C         140.0765  142.6184  170.1623 C.ar    1  UNL1        0.1433
     31 F         139.2609  143.3434  171.1916 F       1  UNL1       -0.2041
     32 C         140.2586  143.2109  168.7963 C.ar    1  UNL1        0.0299
     33 C         141.0742  142.4860  167.7671 C.ar    1  UNL1        0.0067
     34 C         141.7076  141.1687  168.1038 C.ar    1  UNL1        0.0540
@<TRIPOS>BOND
     1     6     7    2
     2     7     8    2
     3     7     4    1
     4     4     3    1
     5     3     2    1
     6     2     1    1
     7     1    18    1
     8    18    19    1
     9    19    20    1
    10    20    21    1
    11    21    22    1
    12    22    25    1
    13    25    26   ar
    14    26    27   ar
    15    27    28   ar
    16    28    29   ar
    17    29    30   ar
    18    30    31    1
    19    30    32   ar
    20    32    33   ar
    21    33    34   ar
    22    22    23    1
    23    23    24    1
    24     7     9    1
    25     9    10   ar
    26    10    11   ar
    27    11    12   ar
    28    12    13   ar
    29    13    14   ar
    30    14    15   ar
    31    15    16   ar
    32    16    17   ar
    33    24    19    1
    34    17     9   ar
    35    34    25   ar
    36    16    11   ar
    37    34    28   ar
    38     4     5    1
@<TRIPOS>MOLECULE
*****
 34 38 0 0 0
SMALL
GASTEIGER

@<TRIPOS>ATOM
      1 C         140.8292  144.4103  157.2854 C.3     1  UNL1        0.0188
      2 C         140.7880  145.6111  158.1835 C.3     1  UNL1        0.0203
      3 C         140.6580  145.4338  159.6673 C.3     1  UNL1        0.0915
      4 N         141.8723  145.1375  160.4965 N.3     1  UNL1       -0.1789
      5 H         142.5300  144.6467  159.8907 H       1  UNL1        0.1488
      6 O         140.2939  144.0871  161.4479 O.2     1  UNL1       -0.1525
      7 S         141.7447  144.3211  161.7484 S.O2    1  UNL1        0.0659
      8 O         143.1955  144.5551  162.0489 O.2     1  UNL1       -0.1525
      9 C         141.6171  143.5047  163.0003 C.ar    1  UNL1        0.1514
     10 C         142.1515  142.1185  163.2072 C.ar    1  UNL1        0.0271
     11 C         141.7974  141.6882  164.5998 C.ar    1  UNL1        0.0079
     12 C         142.0635  140.4210  165.3571 C.ar    1  UNL1        0.0006
     13 C         141.5763  140.2742  166.7681 C.ar    1  UNL1        0.0000
     14 C         140.8230  141.3945  167.4219 C.ar    1  UNL1        0.0005
     15 C         140.5569  142.6617  166.6646 C.ar    1  UNL1        0.0065
     16 C         141.0441  142.8085  165.2536 C.ar    1  UNL1        0.0308
     17 S         140.9326  143.9312  164.2650 S.2     1  UNL1       -0.0673
     18 C         139.7419  143.3797  157.3610 C.3     1  UNL1        0.0721
     19 N         139.7734  142.3337  158.4357 N.3     1  UNL1       -0.2727
     20 C         138.4960  141.8783  159.0767 C.3     1  UNL1        0.0725
     21 C         138.5275  140.8323  160.1514 C.3     1  UNL1        0.0234
     22 C         139.8364  140.2417  160.5850 C.3     1  UNL1        0.0464
     23 C         141.1137  140.6971  159.9440 C.3     1  UNL1        0.0234
     24 C         141.0822  141.7431  158.8694 C.3     1  UNL1        0.0725
     25 C         139.8679  139.1957  161.6597 C.ar    1  UNL1        0.1003
     26 N         140.4874  137.8343  161.5471 N.ar    1  UNL1       -0.0814
     27 O         140.2877  137.1247  162.8535 O.2     1  UNL1       -0.3536
     28 C         139.5448  138.0476  163.7735 C.ar    1  UNL1        0.1787
     29 C         139.0710  137.8878  165.1877 C.ar    1  UNL1        0.0698
     30 C         138.3378  139.0079  165.8640 C.ar    1  UNL1        0.1433
     31 F         137.8640  138.8482  167.2783 F       1  UNL1       -0.2041
     32 C         138.0783  140.2879  165.1262 C.ar    1  UNL1        0.0299
     33 C         138.5520  140.4477  163.7121 C.ar    1  UNL1        0.0067
     34 C         139.2853  139.3275  163.0357 C.ar    1  UNL1        0.0540
@<TRIPOS>BOND
     1     6     7    2
     2     7     8    2
     3     7     4    1
     4     4     3    1
     5     3     2    1
     6     2     1    1
     7     1    18    1
     8    18    19    1
     9    19    20    1
    10    20    21    1
    11    21    22    1
    12    22    25    1
    13    25    26   ar
    14    26    27   ar
    15    27    28   ar
    16    28    29   ar
    17    29    30   ar
    18    30    31    1
    19    30    32   ar
    20    32    33   ar
    21    33    34   ar
    22    22    23    1
    23    23    24    1
    24     7     9    1
    25     9    10   ar
    26    10    11   ar
    27    11    12   ar
    28    12    13   ar
    29    13    14   ar
    30    14    15   ar
    31    15    16   ar
    32    16    17   ar
    33    24    19    1
    34    17     9   ar
    35    34    25   ar
    36    16    11   ar
    37    34    28   ar
    38     4     5    1
@<TRIPOS>MOLECULE
*****
 34 38 0 0 0
SMALL
GASTEIGER

@<TRIPOS>ATOM
      1 C         137.4233  139.8819  160.2836 C.3     1  UNL1        0.0188
      2 C         138.0165  140.3087  158.9736 C.3     1  UNL1        0.0203
      3 C         138.4778  141.7235  158.7847 C.3     1  UNL1        0.0915
      4 N         138.3227  142.7177  159.8971 N.3     1  UNL1       -0.1789
      5 H         138.1374  143.6210  159.4610 H       1  UNL1        0.1488
      6 O         140.3202  142.0237  160.0653 O.2     1  UNL1       -0.1525
      7 S         139.4406  142.9300  160.8745 S.O2    1  UNL1        0.0659
      8 O         138.5610  143.8363  161.6837 O.2     1  UNL1       -0.1525
      9 C         140.5585  143.1423  161.8519 C.ar    1  UNL1        0.1514
     10 C         141.2874  142.0688  162.6044 C.ar    1  UNL1        0.0271
     11 C         142.3231  142.7283  163.4660 C.ar    1  UNL1        0.0079
     12 C         143.3357  142.1717  164.4225 C.ar    1  UNL1        0.0006
     13 C         144.2593  143.0961  165.1589 C.ar    1  UNL1        0.0000
     14 C         144.1704  144.5772  164.9389 C.ar    1  UNL1        0.0005
     15 C         143.1579  145.1339  163.9824 C.ar    1  UNL1        0.0065
     16 C         142.2342  144.2094  163.2460 C.ar    1  UNL1        0.0308
     17 S         141.1436  144.4653  162.2484 S.2     1  UNL1       -0.0673
     18 C         138.1225  138.8552  161.1244 C.3     1  UNL1        0.0721
     19 N         138.3097  139.0904  162.5939 N.3     1  UNL1       -0.2727
     20 C         138.8771  138.0057  163.4608 C.3     1  UNL1        0.0725
     21 C         139.0643  138.2409  164.9304 C.3     1  UNL1        0.0234
     22 C         138.6841  139.5609  165.5331 C.3     1  UNL1        0.0464
     23 C         138.1168  140.6455  164.6662 C.3     1  UNL1        0.0234
     24 C         137.9295  140.4103  163.1967 C.3     1  UNL1        0.0725
     25 C         138.8713  139.7960  167.0027 C.ar    1  UNL1        0.1003
     26 N         138.1035  139.1316  168.1068 N.ar    1  UNL1       -0.0814
     27 O         138.6169  139.6619  169.4126 O.2     1  UNL1       -0.3536
     28 C         139.7020  140.6541  169.1156 C.ar    1  UNL1        0.1787
     29 C         140.5671  141.4928  170.0089 C.ar    1  UNL1        0.0698
     30 C         141.5895  142.4144  169.4128 C.ar    1  UNL1        0.1433
     31 F         142.4547  143.2531  170.3062 F       1  UNL1       -0.2041
     32 C         141.7467  142.4973  167.9234 C.ar    1  UNL1        0.0299
     33 C         140.8816  141.6586  167.0301 C.ar    1  UNL1        0.0067
     34 C         139.8592  140.7370  167.6261 C.ar    1  UNL1        0.0540
@<TRIPOS>BOND
     1     6     7    2
     2     7     8    2
     3     7     4    1
     4     4     3    1
     5     3     2    1
     6     2     1    1
     7     1    18    1
     8    18    19    1
     9    19    20    1
    10    20    21    1
    11    21    22    1
    12    22    25    1
    13    25    26   ar
    14    26    27   ar
    15    27    28   ar
    16    28    29   ar
    17    29    30   ar
    18    30    31    1
    19    30    32   ar
    20    32    33   ar
    21    33    34   ar
    22    22    23    1
    23    23    24    1
    24     7     9    1
    25     9    10   ar
    26    10    11   ar
    27    11    12   ar
    28    12    13   ar
    29    13    14   ar
    30    14    15   ar
    31    15    16   ar
    32    16    17   ar
    33    24    19    1
    34    17     9   ar
    35    34    25   ar
    36    16    11   ar
    37    34    28   ar
    38     4     5    1
@<TRIPOS>MOLECULE
*****
 34 38 0 0 0
SMALL
GASTEIGER

@<TRIPOS>ATOM
      1 C         144.0324  140.2178  160.9989 C.3     1  UNL1        0.0188
      2 C         143.3838  140.4949  159.6750 C.3     1  UNL1        0.0203
      3 C         142.6085  141.7626  159.4705 C.3     1  UNL1        0.0915
      4 N         141.1377  141.7977  159.7630 N.3     1  UNL1       -0.1789
      5 H         140.8708  142.7809  159.8129 H       1  UNL1        0.1488
      6 O         141.2032  142.2307  161.8386 O.2     1  UNL1       -0.1525
      7 S         140.6033  141.1405  161.0010 S.O2    1  UNL1        0.0659
      8 O         140.0035  140.0503  160.1633 O.2     1  UNL1       -0.1525
      9 C         140.0690  140.4834  162.2389 C.ar    1  UNL1        0.1514
     10 C         139.7099  139.0341  162.3829 C.ar    1  UNL1        0.0271
     11 C         139.2189  138.8151  163.7833 C.ar    1  UNL1        0.0079
     12 C         138.7282  137.5891  164.4947 C.ar    1  UNL1        0.0006
     13 C         138.2933  137.6770  165.9276 C.ar    1  UNL1        0.0000
     14 C         138.3490  138.9909  166.6490 C.ar    1  UNL1        0.0005
     15 C         138.8396  140.2169  165.9376 C.ar    1  UNL1        0.0065
     16 C         139.2745  140.1290  164.5047 C.ar    1  UNL1        0.0308
     17 S         139.7999  141.1601  163.5503 S.2     1  UNL1       -0.0673
     18 C         143.5648  139.0645  161.8362 C.3     1  UNL1        0.0721
     19 N         143.2943  139.2604  163.2986 N.3     1  UNL1       -0.2727
     20 C         142.6773  138.1542  164.1020 C.3     1  UNL1        0.0725
     21 C         142.4068  138.3501  165.5643 C.3     1  UNL1        0.0234
     22 C         142.7534  139.6524  166.2233 C.3     1  UNL1        0.0464
     23 C         143.3704  140.7585  165.4199 C.3     1  UNL1        0.0234
     24 C         143.6409  140.5626  163.9575 C.3     1  UNL1        0.0725
     25 C         142.4829  139.8483  167.6856 C.ar    1  UNL1        0.1003
     26 N         142.9442  138.9509  168.7956 N.ar    1  UNL1       -0.0814
     27 O         142.4500  139.5241  170.0907 O.2     1  UNL1       -0.3536
     28 C         141.6833  140.7756  169.7812 C.ar    1  UNL1        0.1787
     29 C         140.9693  141.7587  170.6608 C.ar    1  UNL1        0.0698
     30 C         140.2756  142.9421  170.0540 C.ar    1  UNL1        0.1433
     31 F         139.5616  143.9252  170.9336 F       1  UNL1       -0.2041
     32 C         140.2960  143.1425  168.5675 C.ar    1  UNL1        0.0299
     33 C         141.0100  142.1595  167.6879 C.ar    1  UNL1        0.0067
     34 C         141.7036  140.9760  168.2947 C.ar    1  UNL1        0.0540
@<TRIPOS>BOND
     1     6     7    2
     2     7     8    2
     3     7     4    1
     4     4     3    1
     5     3     2    1
     6     2     1    1
     7     1    18    1
     8    18    19    1
     9    19    20    1
    10    20    21    1
    11    21    22    1
    12    22    25    1
    13    25    26   ar
    14    26    27   ar
    15    27    28   ar
    16    28    29   ar
    17    29    30   ar
    18    30    31    1
    19    30    32   ar
    20    32    33   ar
    21    33    34   ar
    22    22    23    1
    23    23    24    1
    24     7     9    1
    25     9    10   ar
    26    10    11   ar
    27    11    12   ar
    28    12    13   ar
    29    13    14   ar
    30    14    15   ar
    31    15    16   ar
    32    16    17   ar
    33    24    19    1
    34    17     9   ar
    35    34    25   ar
    36    16    11   ar
    37    34    28   ar
    38     4     5    1
@<TRIPOS>MOLECULE
*****
 34 38 0 0 0
SMALL
GASTEIGER

@<TRIPOS>ATOM
      1 C         141.8703  145.1223  157.7603 C.3     1  UNL1        0.0188
      2 C         142.3757  143.8026  157.2572 C.3     1  UNL1        0.0203
      3 C         143.2053  142.9278  158.1495 C.3     1  UNL1        0.0915
      4 N         143.6276  143.4214  159.5015 N.3     1  UNL1       -0.1789
      5 H         144.6228  143.6363  159.4389 H       1  UNL1        0.1488
      6 O         142.8448  141.4801  159.8458 O.2     1  UNL1       -0.1525
      7 S         143.4483  142.5486  160.7083 S.O2    1  UNL1        0.0659
      8 O         144.0518  143.6172  161.5708 O.2     1  UNL1       -0.1525
      9 C         143.2690  141.6759  161.9150 C.ar    1  UNL1        0.1514
     10 C         143.4178  142.1062  163.3442 C.ar    1  UNL1        0.0271
     11 C         143.1501  140.9159  164.2169 C.ar    1  UNL1        0.0079
     12 C         143.1519  140.7430  165.7069 C.ar    1  UNL1        0.0006
     13 C         142.8395  139.4042  166.3070 C.ar    1  UNL1        0.0000
     14 C         142.5252  138.2383  165.4171 C.ar    1  UNL1        0.0005
     15 C         142.5235  138.4113  163.9270 C.ar    1  UNL1        0.0065
     16 C         142.8359  139.7500  163.3270 C.ar    1  UNL1        0.0308
     17 S         142.9093  140.2197  161.9043 S.2     1  UNL1       -0.0673
     18 C         140.5493  145.1996  158.4665 C.3     1  UNL1        0.0721
     19 N         140.3715  144.5354  159.7997 N.3     1  UNL1       -0.2727
     20 C         139.7762  143.1610  159.8795 C.3     1  UNL1        0.0725
     21 C         139.5984  142.4968  161.2126 C.3     1  UNL1        0.0234
     22 C         140.0162  143.2072  162.4661 C.3     1  UNL1        0.0464
     23 C         140.6115  144.5816  162.3862 C.3     1  UNL1        0.0234
     24 C         140.7892  145.2457  161.0531 C.3     1  UNL1        0.0725
     25 C         139.8384  142.5430  163.7992 C.ar    1  UNL1        0.1003
     26 N         140.0014  143.1975  165.1390 N.ar    1  UNL1       -0.0814
     27 O         139.7302  142.1667  166.1945 O.2     1  UNL1       -0.3536
     28 C         139.3997  140.8752  165.5070 C.ar    1  UNL1        0.1787
     29 C         139.0464  139.5174  166.0377 C.ar    1  UNL1        0.0698
     30 C         138.7601  138.3923  165.0880 C.ar    1  UNL1        0.1433
     31 F         138.4068  137.0344  165.6187 F       1  UNL1       -0.2041
     32 C         138.8269  138.6248  163.6076 C.ar    1  UNL1        0.0299
     33 C         139.1802  139.9826  163.0770 C.ar    1  UNL1        0.0067
     34 C         139.4665  141.1078  164.0266 C.ar    1  UNL1        0.0540
@<TRIPOS>BOND
     1     6     7    2
     2     7     8    2
     3     7     4    1
     4     4     3    1
     5     3     2    1
     6     2     1    1
     7     1    18    1
     8    18    19    1
     9    19    20    1
    10    20    21    1
    11    21    22    1
    12    22    25    1
    13    25    26   ar
    14    26    27   ar
    15    27    28   ar
    16    28    29   ar
    17    29    30   ar
    18    30    31    1
    19    30    32   ar
    20    32    33   ar
    21    33    34   ar
    22    22    23    1
    23    23    24    1
    24     7     9    1
    25     9    10   ar
    26    10    11   ar
    27    11    12   ar
    28    12    13   ar
    29    13    14   ar
    30    14    15   ar
    31    15    16   ar
    32    16    17   ar
    33    24    19    1
    34    17     9   ar
    35    34    25   ar
    36    16    11   ar
    37    34    28   ar
    38     4     5    1
@<TRIPOS>MOLECULE
*****
 34 38 0 0 0
SMALL
GASTEIGER

@<TRIPOS>ATOM
      1 C         138.8354  138.2000  160.9101 C.3     1  UNL1        0.0188
      2 C         139.5614  138.9307  159.8196 C.3     1  UNL1        0.0203
      3 C         140.9622  138.5363  159.4563 C.3     1  UNL1        0.0915
      4 N         142.0083  138.4153  160.5245 N.3     1  UNL1       -0.1789
      5 H         141.6678  137.7246  161.1933 H       1  UNL1        0.1488
      6 O         142.7635  140.3392  160.0469 O.2     1  UNL1       -0.1525
      7 S         142.4139  139.6224  161.3172 S.O2    1  UNL1        0.0659
      8 O         142.0642  138.9055  162.5876 O.2     1  UNL1       -0.1525
      9 C         142.8194  140.8295  162.1100 C.ar    1  UNL1        0.1514
     10 C         143.5864  140.8208  163.3991 C.ar    1  UNL1        0.0271
     11 C         143.7702  142.2431  163.8387 C.ar    1  UNL1        0.0079
     12 C         144.4481  142.8447  165.0339 C.ar    1  UNL1        0.0006
     13 C         144.4725  144.3339  165.2117 C.ar    1  UNL1        0.0000
     14 C         143.8190  145.2216  164.1944 C.ar    1  UNL1        0.0005
     15 C         143.1411  144.6200  162.9992 C.ar    1  UNL1        0.0065
     16 C         143.1167  143.1308  162.8213 C.ar    1  UNL1        0.0308
     17 S         142.5290  142.2571  161.7529 S.2     1  UNL1       -0.0673
     18 C         137.9097  138.9455  161.8250 C.3     1  UNL1        0.0721
     19 N         138.3093  139.2052  163.2473 N.3     1  UNL1       -0.2727
     20 C         138.1215  140.5694  163.8420 C.3     1  UNL1        0.0725
     21 C         138.5211  140.8291  165.2643 C.3     1  UNL1        0.0234
     22 C         139.1085  139.7245  166.0919 C.3     1  UNL1        0.0464
     23 C         139.2963  138.3603  165.4972 C.3     1  UNL1        0.0234
     24 C         138.8967  138.1007  164.0749 C.3     1  UNL1        0.0725
     25 C         139.5081  139.9841  167.5142 C.ar    1  UNL1        0.1003
     26 N         138.7176  139.6133  168.7339 N.ar    1  UNL1       -0.0814
     27 O         139.4894  140.0602  169.9400 O.2     1  UNL1       -0.3536
     28 C         140.7568  140.7073  169.4657 C.ar    1  UNL1        0.1787
     29 C         141.9019  141.3332  170.2054 C.ar    1  UNL1        0.0698
     30 C         143.0585  141.9120  169.4458 C.ar    1  UNL1        0.1433
     31 F         144.2036  142.5380  170.1854 F       1  UNL1       -0.2041
     32 C         143.0701  141.8650  167.9465 C.ar    1  UNL1        0.0299
     33 C         141.9251  141.2391  167.2069 C.ar    1  UNL1        0.0067
     34 C         140.7684  140.6602  167.9665 C.ar    1  UNL1        0.0540
@<TRIPOS>BOND
     1     6     7    2
     2     7     8    2
     3     7     4    1
     4     4     3    1
     5     3     2    1
     6     2     1    1
     7     1    18    1
     8    18    19    1
     9    19    20    1
    10    20    21    1
    11    21    22    1
    12    22    25    1
    13    25    26   ar
    14    26    27   ar
    15    27    28   ar
    16    28    29   ar
    17    29    30   ar
    18    30    31    1
    19    30    32   ar
    20    32    33   ar
    21    33    34   ar
    22    22    23    1
    23    23    24    1
    24     7     9    1
    25     9    10   ar
    26    10    11   ar
    27    11    12   ar
    28    12    13   ar
    29    13    14   ar
    30    14    15   ar
    31    15    16   ar
    32    16    17   ar
    33    24    19    1
    34    17     9   ar
    35    34    25   ar
    36    16    11   ar
    37    34    28   ar
    38     4     5    1
@<TRIPOS>MOLECULE
*****
 34 38 0 0 0
SMALL
GASTEIGER

@<TRIPOS>ATOM
      1 C         141.3106  143.1997  157.3395 C.3     1  UNL1        0.0188
      2 C         139.9346  143.6733  157.7034 C.3     1  UNL1        0.0203
      3 C         138.9798  142.7444  158.3931 C.3     1  UNL1        0.0915
      4 N         138.3973  143.1197  159.7235 N.3     1  UNL1       -0.1789
      5 H         138.8921  143.9550  160.0365 H       1  UNL1        0.1488
      6 O         137.6367  143.0933  161.7035 O.2     1  UNL1       -0.1525
      7 S         138.4344  142.1427  160.8610 S.O2    1  UNL1        0.0659
      8 O         139.2322  141.1921  160.0185 O.2     1  UNL1       -0.1525
      9 C         138.4715  141.1656  161.9985 C.ar    1  UNL1        0.1514
     10 C         138.0609  141.4445  163.4140 C.ar    1  UNL1        0.0271
     11 C         138.2614  140.1893  164.2106 C.ar    1  UNL1        0.0079
     12 C         138.0263  139.8704  165.6573 C.ar    1  UNL1        0.0006
     13 C         138.3256  138.4970  166.1808 C.ar    1  UNL1        0.0000
     14 C         138.8601  137.4424  165.2576 C.ar    1  UNL1        0.0005
     15 C         139.0952  137.7614  163.8108 C.ar    1  UNL1        0.0065
     16 C         138.7958  139.1348  163.2874 C.ar    1  UNL1        0.0308
     17 S         138.9257  139.7382  161.9202 S.2     1  UNL1       -0.0673
     18 C         142.4351  143.3361  158.3228 C.3     1  UNL1        0.0721
     19 N         142.3994  142.5730  159.6137 N.3     1  UNL1       -0.2727
     20 C         142.0810  143.2830  160.8961 C.3     1  UNL1        0.0725
     21 C         142.0453  142.5198  162.1870 C.3     1  UNL1        0.0234
     22 C         142.3279  141.0467  162.1954 C.3     1  UNL1        0.0464
     23 C         142.6463  140.3368  160.9130 C.3     1  UNL1        0.0234
     24 C         142.6820  141.0999  159.6222 C.3     1  UNL1        0.0725
     25 C         142.2922  140.2835  163.4863 C.ar    1  UNL1        0.1003
     26 N         142.7585  138.8724  163.6895 N.ar    1  UNL1       -0.0814
     27 O         142.5383  138.5143  165.1294 O.2     1  UNL1       -0.3536
     28 C         141.9360  139.7042  165.8161 C.ar    1  UNL1        0.1787
     29 C         141.5064  139.9332  167.2349 C.ar    1  UNL1        0.0698
     30 C         140.9247  141.2556  167.6381 C.ar    1  UNL1        0.1433
     31 F         140.4951  141.4847  169.0570 F       1  UNL1       -0.2041
     32 C         140.7726  142.3491  166.6226 C.ar    1  UNL1        0.0299
     33 C         141.2022  142.1201  165.2039 C.ar    1  UNL1        0.0067
     34 C         141.7839  140.7976  164.8006 C.ar    1  UNL1        0.0540
@<TRIPOS>BOND
     1     6     7    2
     2     7     8    2
     3     7     4    1
     4     4     3    1
     5     3     2    1
     6     2     1    1
     7     1    18    1
     8    18    19    1
     9    19    20    1
    10    20    21    1
    11    21    22    1
    12    22    25    1
    13    25    26   ar
    14    26    27   ar
    15    27    28   ar
    16    28    29   ar
    17    29    30   ar
    18    30    31    1
    19    30    32   ar
    20    32    33   ar
    21    33    34   ar
    22    22    23    1
    23    23    24    1
    24     7     9    1
    25     9    10   ar
    26    10    11   ar
    27    11    12   ar
    28    12    13   ar
    29    13    14   ar
    30    14    15   ar
    31    15    16   ar
    32    16    17   ar
    33    24    19    1
    34    17     9   ar
    35    34    25   ar
    36    16    11   ar
    37    34    28   ar
    38     4     5    1
