@<TRIPOS>MOLECULE
*****
 35 39 0 0 0
SMALL
GASTEIGER

@<TRIPOS>ATOM
      1 C         138.4337  140.3965  158.5510 C.3     1  UNL1        0.0343
      2 C         138.6664  139.7020  159.8601 C.ar    1  UNL1        0.0181
      3 C         137.5073  139.3891  160.7594 C.ar    1  UNL1        0.0991
      4 N         137.7399  138.6946  162.0684 N.ar    1  UNL1       -0.2123
      5 C         139.1315  138.3131  162.4781 C.ar    1  UNL1        0.2207
      6 N         140.2905  138.6261  161.5788 N.ar    1  UNL1       -0.2108
      7 C         140.0579  139.3205  160.2698 C.ar    1  UNL1        0.1161
      8 C         141.2170  139.6335  159.3705 C.ar    1  UNL1        0.1619
      9 C         142.2842  140.6549  159.6307 C.ar    1  UNL1        0.0391
     10 C         143.2391  140.6327  158.4741 C.ar    1  UNL1        0.0312
     11 C         142.7620  139.5975  157.4990 C.ar    1  UNL1        0.1222
     12 O         141.5123  138.9800  158.0530 O.2     1  UNL1       -0.4565
     13 C         143.5271  139.3509  156.2327 C.3     1  UNL1        0.0857
     14 C         144.7694  140.1396  155.9414 C.3     1  UNL1        0.1017
     15 N         145.2465  141.1747  156.9165 N.am    1  UNL1       -0.2740
     16 C         146.4888  141.9634  156.6252 C.2     1  UNL1        0.2413
     17 O         146.9659  142.9985  157.6003 O.2     1  UNL1       -0.2737
     18 C         144.4813  141.4213  158.1829 C.3     1  UNL1        0.1229
     19 C         147.2540  141.7168  155.3589 C.3     1  UNL1        0.1901
     20 C         148.7539  141.7290  155.3744 C.1     1  UNL1        0.0830
     21 N         150.2537  141.7412  155.3899 N.1     1  UNL1       -0.1954
     22 N         139.3641  137.6187  163.7872 N.pl3   1  UNL1       -0.2825
     23 H         139.3413  136.6355  163.8338 H       1  UNL1        0.1551
     24 C         139.6314  138.4221  165.0253 C.ar    1  UNL1        0.0505
     25 C         138.5200  138.7001  165.9935 C.ar    1  UNL1        0.0159
     26 C         138.7873  139.5036  167.2317 C.ar    1  UNL1        0.0158
     27 C         140.1661  140.0290  167.5016 C.ar    1  UNL1        0.0481
     28 C         141.2776  139.7509  166.5335 C.ar    1  UNL1        0.0158
     29 C         141.0103  138.9475  165.2954 C.ar    1  UNL1        0.0159
     30 N         140.4334  140.8324  168.7398 N.pl3   1  UNL1       -0.3028
     31 C         140.4434  142.3309  168.6738 C.3     1  UNL1        0.1231
     32 C         140.7107  143.1344  169.9121 C.3     1  UNL1        0.1636
     33 O         140.9680  142.4393  171.2161 O.3     1  UNL1       -0.3501
     34 C         140.9580  140.9408  171.2820 C.3     1  UNL1        0.1636
     35 C         140.6907  140.1373  170.0439 C.3     1  UNL1        0.1231
@<TRIPOS>BOND
     1     1     2    1
     2     2     3   ar
     3     3     4   ar
     4     4     5   ar
     5     5    22    1
     6    22    24    1
     7    24    25   ar
     8    25    26   ar
     9    26    27   ar
    10    27    30    1
    11    30    31    1
    12    31    32    1
    13    32    33    1
    14    33    34    1
    15    34    35    1
    16    27    28   ar
    17    28    29   ar
    18     5     6   ar
    19     6     7   ar
    20     7     8    1
    21     8     9   ar
    22     9    10   ar
    23    10    11   ar
    24    11    12   ar
    25    11    13    1
    26    13    14    1
    27    14    15    1
    28    15    16   am
    29    16    17    2
    30    16    19    1
    31    19    20    1
    32    20    21    3
    33    15    18    1
    34     7     2   ar
    35    12     8   ar
    36    29    24   ar
    37    18    10    1
    38    35    30    1
    39    22    23    1
@<TRIPOS>MOLECULE
*****
 35 39 0 0 0
SMALL
GASTEIGER

@<TRIPOS>ATOM
      1 C         142.5409  139.3968  158.8277 C.3     1  UNL1        0.0343
      2 C         141.6227  139.1996  159.9974 C.ar    1  UNL1        0.0181
      3 C         141.7002  137.9396  160.8076 C.ar    1  UNL1        0.0991
      4 N         140.7820  137.7423  161.9772 N.ar    1  UNL1       -0.2123
      5 C         139.7864  138.8050  162.3366 C.ar    1  UNL1        0.2207
      6 N         139.7089  140.0650  161.5264 N.ar    1  UNL1       -0.2108
      7 C         140.6271  140.2623  160.3568 C.ar    1  UNL1        0.1161
      8 C         140.5496  141.5223  159.5466 C.ar    1  UNL1        0.1619
      9 C         139.5031  141.8493  158.5229 C.ar    1  UNL1        0.0391
     10 C         139.8117  143.2056  157.9614 C.ar    1  UNL1        0.0312
     11 C         141.0489  143.7169  158.6382 C.ar    1  UNL1        0.1222
     12 O         141.5049  142.6765  159.6179 O.2     1  UNL1       -0.4565
     13 C         141.6004  145.0637  158.2750 C.3     1  UNL1        0.0857
     14 C         140.9147  145.8992  157.2350 C.3     1  UNL1        0.1017
     15 N         139.6775  145.3879  156.5582 N.am    1  UNL1       -0.2740
     16 C         138.9918  146.2236  155.5181 C.2     1  UNL1        0.2413
     17 O         137.7546  145.7123  154.8414 O.2     1  UNL1       -0.2737
     18 C         139.1260  144.0412  156.9214 C.3     1  UNL1        0.1229
     19 C         139.5433  147.5703  155.1549 C.3     1  UNL1        0.1901
     20 C         138.8153  148.8152  155.5679 C.1     1  UNL1        0.0830
     21 N         138.0874  150.0600  155.9809 N.1     1  UNL1       -0.1954
     22 N         138.8682  138.6078  163.5063 N.pl3   1  UNL1       -0.2825
     23 H         138.0400  138.0863  163.3995 H       1  UNL1        0.1551
     24 C         139.2117  139.2052  164.8385 C.ar    1  UNL1        0.0505
     25 C         140.3708  140.1495  164.9606 C.ar    1  UNL1        0.0159
     26 C         140.7143  140.7469  166.2930 C.ar    1  UNL1        0.0158
     27 C         139.8989  140.4000  167.5032 C.ar    1  UNL1        0.0481
     28 C         138.7398  139.4557  167.3811 C.ar    1  UNL1        0.0158
     29 C         138.3962  138.8583  166.0488 C.ar    1  UNL1        0.0159
     30 N         140.2424  140.9974  168.8355 N.pl3   1  UNL1       -0.3028
     31 C         140.4998  140.1053  170.0136 C.3     1  UNL1        0.1231
     32 C         140.8434  140.7028  171.3459 C.3     1  UNL1        0.1636
     33 O         140.9296  142.1923  171.5001 O.3     1  UNL1       -0.3501
     34 C         140.6722  143.0844  170.3220 C.3     1  UNL1        0.1636
     35 C         140.3286  142.4870  168.9897 C.3     1  UNL1        0.1231
@<TRIPOS>BOND
     1     1     2    1
     2     2     3   ar
     3     3     4   ar
     4     4     5   ar
     5     5    22    1
     6    22    24    1
     7    24    25   ar
     8    25    26   ar
     9    26    27   ar
    10    27    30    1
    11    30    31    1
    12    31    32    1
    13    32    33    1
    14    33    34    1
    15    34    35    1
    16    27    28   ar
    17    28    29   ar
    18     5     6   ar
    19     6     7   ar
    20     7     8    1
    21     8     9   ar
    22     9    10   ar
    23    10    11   ar
    24    11    12   ar
    25    11    13    1
    26    13    14    1
    27    14    15    1
    28    15    16   am
    29    16    17    2
    30    16    19    1
    31    19    20    1
    32    20    21    3
    33    15    18    1
    34     7     2   ar
    35    12     8   ar
    36    29    24   ar
    37    18    10    1
    38    35    30    1
    39    22    23    1
@<TRIPOS>MOLECULE
*****
 35 39 0 0 0
SMALL
GASTEIGER

@<TRIPOS>ATOM
      1 C         140.0006  142.5593  158.0754 C.3     1  UNL1        0.0343
      2 C         139.3205  142.1697  159.3544 C.ar    1  UNL1        0.0181
      3 C         138.8613  143.2287  160.3124 C.ar    1  UNL1        0.0991
      4 N         138.1812  142.8391  161.5913 N.ar    1  UNL1       -0.2123
      5 C         137.9605  141.3906  161.9123 C.ar    1  UNL1        0.2207
      6 N         138.4197  140.3317  160.9543 N.ar    1  UNL1       -0.2108
      7 C         139.0998  140.7212  159.6754 C.ar    1  UNL1        0.1161
      8 C         139.5590  139.6623  158.7174 C.ar    1  UNL1        0.1619
      9 C         140.8716  138.9379  158.7668 C.ar    1  UNL1        0.0391
     10 C         140.9101  137.9697  157.6218 C.ar    1  UNL1        0.0312
     11 C         139.6214  138.0957  156.8647 C.ar    1  UNL1        0.1222
     12 O         138.7864  139.1417  157.5418 O.2     1  UNL1       -0.4565
     13 C         139.3747  137.2416  155.6565 C.3     1  UNL1        0.0857
     14 C         140.4168  136.2616  155.2055 C.3     1  UNL1        0.1017
     15 N         141.7056  136.1356  155.9626 N.am    1  UNL1       -0.2740
     16 C         142.7477  135.1555  155.5115 C.2     1  UNL1        0.2413
     17 O         144.0365  135.0295  156.2686 O.2     1  UNL1       -0.2737
     18 C         141.9522  136.9896  157.1708 C.3     1  UNL1        0.1229
     19 C         142.5011  134.3014  154.3033 C.3     1  UNL1        0.1901
     20 C         142.8838  132.8511  154.3192 C.1     1  UNL1        0.0830
     21 N         143.2666  131.4009  154.3351 N.1     1  UNL1       -0.1954
     22 N         137.2804  141.0010  163.1913 N.pl3   1  UNL1       -0.2825
     23 H         136.3113  140.8282  163.2007 H       1  UNL1        0.1551
     24 C         138.0770  140.8748  164.4560 C.ar    1  UNL1        0.0505
     25 C         138.0668  139.5859  165.2233 C.ar    1  UNL1        0.0159
     26 C         138.8635  139.4597  166.4881 C.ar    1  UNL1        0.0158
     27 C         139.6702  140.6224  166.9855 C.ar    1  UNL1        0.0481
     28 C         139.6803  141.9112  166.2182 C.ar    1  UNL1        0.0158
     29 C         138.8837  142.0375  164.9535 C.ar    1  UNL1        0.0159
     30 N         140.4667  140.4961  168.2502 N.pl3   1  UNL1       -0.3028
     31 C         139.8909  140.9741  169.5501 C.3     1  UNL1        0.1231
     32 C         140.6875  140.8479  170.8149 C.3     1  UNL1        0.1636
     33 O         142.0600  140.2436  170.7796 O.3     1  UNL1       -0.3501
     34 C         142.6358  139.7657  169.4796 C.3     1  UNL1        0.1636
     35 C         141.8393  139.8919  168.2149 C.3     1  UNL1        0.1231
@<TRIPOS>BOND
     1     1     2    1
     2     2     3   ar
     3     3     4   ar
     4     4     5   ar
     5     5    22    1
     6    22    24    1
     7    24    25   ar
     8    25    26   ar
     9    26    27   ar
    10    27    30    1
    11    30    31    1
    12    31    32    1
    13    32    33    1
    14    33    34    1
    15    34    35    1
    16    27    28   ar
    17    28    29   ar
    18     5     6   ar
    19     6     7   ar
    20     7     8    1
    21     8     9   ar
    22     9    10   ar
    23    10    11   ar
    24    11    12   ar
    25    11    13    1
    26    13    14    1
    27    14    15    1
    28    15    16   am
    29    16    17    2
    30    16    19    1
    31    19    20    1
    32    20    21    3
    33    15    18    1
    34     7     2   ar
    35    12     8   ar
    36    29    24   ar
    37    18    10    1
    38    35    30    1
    39    22    23    1
@<TRIPOS>MOLECULE
*****
 35 39 0 0 0
SMALL
GASTEIGER

@<TRIPOS>ATOM
      1 C         136.5137  141.0197  156.9289 C.3     1  UNL1        0.0343
      2 C         137.5548  141.9909  156.4565 C.ar    1  UNL1        0.0181
      3 C         137.6130  142.3833  155.0099 C.ar    1  UNL1        0.0991
      4 N         138.6539  143.3545  154.5376 N.ar    1  UNL1       -0.2123
      5 C         139.6367  143.9332  155.5118 C.ar    1  UNL1        0.2207
      6 N         139.5785  143.5408  156.9584 N.ar    1  UNL1       -0.2108
      7 C         138.5375  142.5697  157.4307 C.ar    1  UNL1        0.1161
      8 C         138.4793  142.1773  158.8773 C.ar    1  UNL1        0.1619
      9 C         138.8140  140.8272  159.4389 C.ar    1  UNL1        0.0391
     10 C         138.6178  140.8816  160.9250 C.ar    1  UNL1        0.0312
     11 C         138.1617  142.2653  161.2820 C.ar    1  UNL1        0.1222
     12 O         138.0761  143.0660  160.0164 O.2     1  UNL1       -0.4565
     13 C         137.8833  142.6173  162.7132 C.3     1  UNL1        0.0857
     14 C         138.0609  141.5857  163.7875 C.3     1  UNL1        0.1017
     15 N         138.5169  140.2020  163.4305 N.am    1  UNL1       -0.2740
     16 C         138.6946  139.1703  164.5048 C.2     1  UNL1        0.2413
     17 O         139.1506  137.7866  164.1479 O.2     1  UNL1       -0.2737
     18 C         138.7954  139.8499  161.9992 C.3     1  UNL1        0.1229
     19 C         138.4161  139.5223  165.9361 C.3     1  UNL1        0.1901
     20 C         137.6527  138.5698  166.8079 C.1     1  UNL1        0.0830
     21 N         136.8892  137.6174  167.6796 N.1     1  UNL1       -0.1954
     22 N         140.6778  144.9044  155.0394 N.pl3   1  UNL1       -0.2825
     23 H         141.6055  144.6042  154.9037 H       1  UNL1        0.1551
     24 C         140.3053  146.3329  154.7739 C.ar    1  UNL1        0.0505
     25 C         139.3814  147.0537  155.7104 C.ar    1  UNL1        0.0159
     26 C         139.0090  148.4822  155.4449 C.ar    1  UNL1        0.0158
     27 C         139.5603  149.1901  154.2428 C.ar    1  UNL1        0.0481
     28 C         140.4841  148.4693  153.3063 C.ar    1  UNL1        0.0158
     29 C         140.8566  147.0408  153.5718 C.ar    1  UNL1        0.0159
     30 N         139.1878  150.6186  153.9773 N.pl3   1  UNL1       -0.3028
     31 C         138.7791  151.5104  155.1120 C.3     1  UNL1        0.1231
     32 C         138.4066  152.9390  154.8464 C.3     1  UNL1        0.1636
     33 O         138.4429  153.4757  153.4462 O.3     1  UNL1       -0.3501
     34 C         138.8515  152.5838  152.3115 C.3     1  UNL1        0.1636
     35 C         139.2240  151.1553  152.5770 C.3     1  UNL1        0.1231
@<TRIPOS>BOND
     1     1     2    1
     2     2     3   ar
     3     3     4   ar
     4     4     5   ar
     5     5    22    1
     6    22    24    1
     7    24    25   ar
     8    25    26   ar
     9    26    27   ar
    10    27    30    1
    11    30    31    1
    12    31    32    1
    13    32    33    1
    14    33    34    1
    15    34    35    1
    16    27    28   ar
    17    28    29   ar
    18     5     6   ar
    19     6     7   ar
    20     7     8    1
    21     8     9   ar
    22     9    10   ar
    23    10    11   ar
    24    11    12   ar
    25    11    13    1
    26    13    14    1
    27    14    15    1
    28    15    16   am
    29    16    17    2
    30    16    19    1
    31    19    20    1
    32    20    21    3
    33    15    18    1
    34     7     2   ar
    35    12     8   ar
    36    29    24   ar
    37    18    10    1
    38    35    30    1
    39    22    23    1
@<TRIPOS>MOLECULE
*****
 35 39 0 0 0
SMALL
GASTEIGER

@<TRIPOS>ATOM
      1 C         143.7010  140.6783  158.7146 C.3     1  UNL1        0.0343
      2 C         143.3268  139.5050  157.8581 C.ar    1  UNL1        0.0181
      3 C         143.8407  139.4085  156.4522 C.ar    1  UNL1        0.0991
      4 N         143.4666  138.2353  155.5957 N.ar    1  UNL1       -0.2123
      5 C         142.5786  137.1585  156.1452 C.ar    1  UNL1        0.2207
      6 N         142.0647  137.2550  157.5511 N.ar    1  UNL1       -0.2108
      7 C         142.4388  138.4282  158.4076 C.ar    1  UNL1        0.1161
      8 C         141.9249  138.5246  159.8135 C.ar    1  UNL1        0.1619
      9 C         140.9163  139.5138  160.3177 C.ar    1  UNL1        0.0391
     10 C         140.6974  139.2494  161.7779 C.ar    1  UNL1        0.0312
     11 C         141.5707  138.0967  162.1761 C.ar    1  UNL1        0.1222
     12 O         142.3293  137.6488  160.9621 O.2     1  UNL1       -0.4565
     13 C         141.5623  137.6038  163.5928 C.3     1  UNL1        0.0857
     14 C         140.6806  138.2637  164.6112 C.3     1  UNL1        0.1017
     15 N         139.8073  139.4164  164.2129 N.am    1  UNL1       -0.2740
     16 C         138.9256  140.0763  165.2314 C.2     1  UNL1        0.2413
     17 O         138.0523  141.2290  164.8331 O.2     1  UNL1       -0.2737
     18 C         139.8157  139.9092  162.7962 C.3     1  UNL1        0.1229
     19 C         138.9172  139.5834  166.6480 C.3     1  UNL1        0.1901
     20 C         137.8490  138.6350  167.1059 C.1     1  UNL1        0.0830
     21 N         136.7810  137.6865  167.5637 N.1     1  UNL1       -0.1954
     22 N         142.2045  135.9853  155.2887 N.pl3   1  UNL1       -0.2825
     23 H         141.7418  136.1291  154.4317 H       1  UNL1        0.1551
     24 C         142.5352  134.5929  155.7380 C.ar    1  UNL1        0.0505
     25 C         141.6434  133.4493  155.3546 C.ar    1  UNL1        0.0159
     26 C         141.9742  132.0569  155.8040 C.ar    1  UNL1        0.0158
     27 C         143.1967  131.8082  156.6368 C.ar    1  UNL1        0.0481
     28 C         144.0885  132.9517  157.0202 C.ar    1  UNL1        0.0158
     29 C         143.7578  134.3441  156.5709 C.ar    1  UNL1        0.0159
     30 N         143.5275  130.4158  157.0861 N.pl3   1  UNL1       -0.3028
     31 C         144.5418  130.1984  158.1695 C.3     1  UNL1        0.1231
     32 C         144.8726  128.8060  158.6189 C.3     1  UNL1        0.1636
     33 O         144.1889  127.6311  157.9848 O.3     1  UNL1       -0.3501
     34 C         143.1745  127.8485  156.9014 C.3     1  UNL1        0.1636
     35 C         142.8438  129.2408  156.4520 C.3     1  UNL1        0.1231
@<TRIPOS>BOND
     1     1     2    1
     2     2     3   ar
     3     3     4   ar
     4     4     5   ar
     5     5    22    1
     6    22    24    1
     7    24    25   ar
     8    25    26   ar
     9    26    27   ar
    10    27    30    1
    11    30    31    1
    12    31    32    1
    13    32    33    1
    14    33    34    1
    15    34    35    1
    16    27    28   ar
    17    28    29   ar
    18     5     6   ar
    19     6     7   ar
    20     7     8    1
    21     8     9   ar
    22     9    10   ar
    23    10    11   ar
    24    11    12   ar
    25    11    13    1
    26    13    14    1
    27    14    15    1
    28    15    16   am
    29    16    17    2
    30    16    19    1
    31    19    20    1
    32    20    21    3
    33    15    18    1
    34     7     2   ar
    35    12     8   ar
    36    29    24   ar
    37    18    10    1
    38    35    30    1
    39    22    23    1
@<TRIPOS>MOLECULE
*****
 35 39 0 0 0
SMALL
GASTEIGER

@<TRIPOS>ATOM
      1 C         138.4407  140.3249  159.0278 C.3     1  UNL1        0.0343
      2 C         139.5818  139.4960  158.5168 C.ar    1  UNL1        0.0181
      3 C         139.8382  139.4009  157.0420 C.ar    1  UNL1        0.0991
      4 N         140.9792  138.5720  156.5310 N.ar    1  UNL1       -0.2123
      5 C         141.8637  137.8382  157.4949 C.ar    1  UNL1        0.2207
      6 N         141.6072  137.9333  158.9698 N.ar    1  UNL1       -0.2108
      7 C         140.4662  138.7622  159.4807 C.ar    1  UNL1        0.1161
      8 C         140.2098  138.8572  160.9556 C.ar    1  UNL1        0.1619
      9 C         140.6327  139.9820  161.8534 C.ar    1  UNL1        0.0391
     10 C         140.1697  139.6641  163.2442 C.ar    1  UNL1        0.0312
     11 C         139.4605  138.3429  163.2061 C.ar    1  UNL1        0.1222
     12 O         139.4853  137.8442  161.7916 O.2     1  UNL1       -0.4565
     13 C         138.8838  137.7646  164.4642 C.3     1  UNL1        0.0857
     14 C         139.0163  138.5076  165.7605 C.3     1  UNL1        0.1017
     15 N         139.7254  139.8288  165.7987 N.am    1  UNL1       -0.2740
     16 C         139.8579  140.5717  167.0951 C.2     1  UNL1        0.2413
     17 O         140.5670  141.8930  167.1332 O.2     1  UNL1       -0.2737
     18 C         140.3021  140.4071  164.5405 C.3     1  UNL1        0.1229
     19 C         139.2812  139.9934  168.3532 C.3     1  UNL1        0.1901
     20 C         139.6667  140.5635  169.6861 C.1     1  UNL1        0.0830
     21 N         140.0521  141.1335  171.0190 N.1     1  UNL1       -0.1954
     22 N         143.0047  137.0093  156.9840 N.pl3   1  UNL1       -0.2825
     23 H         143.8833  137.4248  156.8268 H       1  UNL1        0.1551
     24 C         142.8071  135.5474  156.7125 C.ar    1  UNL1        0.0505
     25 C         141.8452  135.1052  155.6500 C.ar    1  UNL1        0.0159
     26 C         141.6476  133.6432  155.3785 C.ar    1  UNL1        0.0158
     27 C         142.4120  132.6235  156.1696 C.ar    1  UNL1        0.0481
     28 C         143.3739  133.0657  157.2322 C.ar    1  UNL1        0.0158
     29 C         143.5715  134.5276  157.5037 C.ar    1  UNL1        0.0159
     30 N         142.2143  131.1616  155.8982 N.pl3   1  UNL1       -0.3028
     31 C         143.1364  130.1527  156.5161 C.3     1  UNL1        0.1231
     32 C         142.9388  128.6907  156.2446 C.3     1  UNL1        0.1636
     33 O         141.8191  128.2377  155.3552 O.3     1  UNL1       -0.3501
     34 C         140.8970  129.2467  154.7372 C.3     1  UNL1        0.1636
     35 C         141.0946  130.7086  155.0087 C.3     1  UNL1        0.1231
@<TRIPOS>BOND
     1     1     2    1
     2     2     3   ar
     3     3     4   ar
     4     4     5   ar
     5     5    22    1
     6    22    24    1
     7    24    25   ar
     8    25    26   ar
     9    26    27   ar
    10    27    30    1
    11    30    31    1
    12    31    32    1
    13    32    33    1
    14    33    34    1
    15    34    35    1
    16    27    28   ar
    17    28    29   ar
    18     5     6   ar
    19     6     7   ar
    20     7     8    1
    21     8     9   ar
    22     9    10   ar
    23    10    11   ar
    24    11    12   ar
    25    11    13    1
    26    13    14    1
    27    14    15    1
    28    15    16   am
    29    16    17    2
    30    16    19    1
    31    19    20    1
    32    20    21    3
    33    15    18    1
    34     7     2   ar
    35    12     8   ar
    36    29    24   ar
    37    18    10    1
    38    35    30    1
    39    22    23    1
@<TRIPOS>MOLECULE
*****
 35 39 0 0 0
SMALL
GASTEIGER

@<TRIPOS>ATOM
      1 C         139.9986  143.8313  158.1316 C.3     1  UNL1        0.0343
      2 C         138.9569  143.2117  157.2477 C.ar    1  UNL1        0.0181
      3 C         138.8805  143.5915  155.7986 C.ar    1  UNL1        0.0991
      4 N         137.8389  142.9721  154.9148 N.ar    1  UNL1       -0.2123
      5 C         136.8736  141.9728  155.4801 C.ar    1  UNL1        0.2207
      6 N         136.9499  141.5930  156.9292 N.ar    1  UNL1       -0.2108
      7 C         137.9916  142.2124  157.8130 C.ar    1  UNL1        0.1161
      8 C         138.0680  141.8326  159.2621 C.ar    1  UNL1        0.1619
      9 C         138.5141  140.5069  159.8038 C.ar    1  UNL1        0.0391
     10 C         138.4335  140.5668  161.3005 C.ar    1  UNL1        0.0312
     11 C         137.9375  141.9295  161.6838 C.ar    1  UNL1        0.1222
     12 O         137.7116  142.7118  160.4240 O.2     1  UNL1       -0.4565
     13 C         137.7556  142.2820  163.1304 C.3     1  UNL1        0.0857
     14 C         138.0697  141.2717  164.1936 C.3     1  UNL1        0.1017
     15 N         138.5657  139.9090  163.8103 N.am    1  UNL1       -0.2740
     16 C         138.8799  138.8986  164.8737 C.2     1  UNL1        0.2413
     17 O         139.3759  137.5359  164.4904 O.2     1  UNL1       -0.2737
     18 C         138.7476  139.5565  162.3637 C.3     1  UNL1        0.1229
     19 C         138.6980  139.2511  166.3203 C.3     1  UNL1        0.1901
     20 C         137.6858  138.5175  167.1494 C.1     1  UNL1        0.0830
     21 N         136.6737  137.7840  167.9785 N.1     1  UNL1       -0.1954
     22 N         135.8319  141.3532  154.5963 N.pl3   1  UNL1       -0.2825
     23 H         136.0077  141.2377  153.6345 H       1  UNL1        0.1551
     24 C         134.5223  140.9097  155.1778 C.ar    1  UNL1        0.0505
     25 C         133.3132  141.7896  155.0606 C.ar    1  UNL1        0.0159
     26 C         132.0035  141.3460  155.6422 C.ar    1  UNL1        0.0158
     27 C         131.9031  140.0225  156.3409 C.ar    1  UNL1        0.0481
     28 C         133.1122  139.1426  156.4581 C.ar    1  UNL1        0.0158
     29 C         134.4218  139.5861  155.8766 C.ar    1  UNL1        0.0159
     30 N         130.5935  139.5790  156.9225 N.pl3   1  UNL1       -0.3028
     31 C         130.5639  138.5127  157.9770 C.3     1  UNL1        0.1231
     32 C         129.2542  138.0691  158.5586 C.3     1  UNL1        0.1636
     33 O         127.9742  138.6919  158.0855 O.3     1  UNL1       -0.3501
     34 C         128.0039  139.7583  157.0310 C.3     1  UNL1        0.1636
     35 C         129.3134  140.2018  156.4495 C.3     1  UNL1        0.1231
@<TRIPOS>BOND
     1     1     2    1
     2     2     3   ar
     3     3     4   ar
     4     4     5   ar
     5     5    22    1
     6    22    24    1
     7    24    25   ar
     8    25    26   ar
     9    26    27   ar
    10    27    30    1
    11    30    31    1
    12    31    32    1
    13    32    33    1
    14    33    34    1
    15    34    35    1
    16    27    28   ar
    17    28    29   ar
    18     5     6   ar
    19     6     7   ar
    20     7     8    1
    21     8     9   ar
    22     9    10   ar
    23    10    11   ar
    24    11    12   ar
    25    11    13    1
    26    13    14    1
    27    14    15    1
    28    15    16   am
    29    16    17    2
    30    16    19    1
    31    19    20    1
    32    20    21    3
    33    15    18    1
    34     7     2   ar
    35    12     8   ar
    36    29    24   ar
    37    18    10    1
    38    35    30    1
    39    22    23    1
@<TRIPOS>MOLECULE
*****
 35 39 0 0 0
SMALL
GASTEIGER

@<TRIPOS>ATOM
      1 C         144.4474  141.7355  160.5392 C.3     1  UNL1        0.0343
      2 C         143.6148  140.8276  159.6832 C.ar    1  UNL1        0.0181
      3 C         143.7022  140.9177  158.1884 C.ar    1  UNL1        0.0991
      4 N         142.8697  140.0099  157.3324 N.ar    1  UNL1       -0.2123
      5 C         141.9500  139.0119  157.9712 C.ar    1  UNL1        0.2207
      6 N         141.8627  138.9218  159.4659 N.ar    1  UNL1       -0.2108
      7 C         142.6951  139.8296  160.3219 C.ar    1  UNL1        0.1161
      8 C         142.6078  139.7395  161.8167 C.ar    1  UNL1        0.1619
      9 C         141.5184  140.3147  162.6725 C.ar    1  UNL1        0.0391
     10 C         141.8318  139.9891  164.1028 C.ar    1  UNL1        0.0312
     11 C         143.1149  139.2126  164.1309 C.ar    1  UNL1        0.1222
     12 O         143.5944  139.0584  162.7180 O.2     1  UNL1       -0.4565
     13 C         143.6808  138.7463  165.4395 C.3     1  UNL1        0.0857
     14 C         142.9637  139.0565  166.7198 C.3     1  UNL1        0.1017
     15 N         141.6806  139.8330  166.6917 N.am    1  UNL1       -0.2740
     16 C         140.9634  140.1432  167.9722 C.2     1  UNL1        0.2413
     17 O         139.6803  140.9196  167.9440 O.2     1  UNL1       -0.2737
     18 C         141.1147  140.2993  165.3832 C.3     1  UNL1        0.1229
     19 C         141.5293  139.6769  169.2807 C.3     1  UNL1        0.1901
     20 C         141.1190  140.3491  170.5574 C.1     1  UNL1        0.0830
     21 N         140.7088  141.0212  171.8341 N.1     1  UNL1       -0.1954
     22 N         141.1175  138.1039  157.1152 N.pl3   1  UNL1       -0.2825
     23 H         140.2063  138.3712  156.8552 H       1  UNL1        0.1551
     24 C         141.6733  136.7889  156.6552 C.ar    1  UNL1        0.0505
     25 C         140.9246  135.9701  155.6456 C.ar    1  UNL1        0.0159
     26 C         141.4805  134.6550  155.1857 C.ar    1  UNL1        0.0158
     27 C         142.7850  134.1587  155.7352 C.ar    1  UNL1        0.0481
     28 C         143.5336  134.9774  156.7448 C.ar    1  UNL1        0.0158
     29 C         142.9778  136.2925  157.2047 C.ar    1  UNL1        0.0159
     30 N         143.3408  132.8436  155.2753 N.pl3   1  UNL1       -0.3028
     31 C         144.3016  132.0896  156.1461 C.3     1  UNL1        0.1231
     32 C         144.8574  130.7745  155.6860 C.3     1  UNL1        0.1636
     33 O         144.4524  130.2134  154.3552 O.3     1  UNL1       -0.3501
     34 C         143.4915  130.9674  153.4844 C.3     1  UNL1        0.1636
     35 C         142.9357  132.2824  153.9444 C.3     1  UNL1        0.1231
@<TRIPOS>BOND
     1     1     2    1
     2     2     3   ar
     3     3     4   ar
     4     4     5   ar
     5     5    22    1
     6    22    24    1
     7    24    25   ar
     8    25    26   ar
     9    26    27   ar
    10    27    30    1
    11    30    31    1
    12    31    32    1
    13    32    33    1
    14    33    34    1
    15    34    35    1
    16    27    28   ar
    17    28    29   ar
    18     5     6   ar
    19     6     7   ar
    20     7     8    1
    21     8     9   ar
    22     9    10   ar
    23    10    11   ar
    24    11    12   ar
    25    11    13    1
    26    13    14    1
    27    14    15    1
    28    15    16   am
    29    16    17    2
    30    16    19    1
    31    19    20    1
    32    20    21    3
    33    15    18    1
    34     7     2   ar
    35    12     8   ar
    36    29    24   ar
    37    18    10    1
    38    35    30    1
    39    22    23    1
@<TRIPOS>MOLECULE
*****
 35 39 0 0 0
SMALL
GASTEIGER

@<TRIPOS>ATOM
      1 C         140.4946  138.6322  158.3155 C.3     1  UNL1        0.0343
      2 C         139.2675  139.2851  157.7517 C.ar    1  UNL1        0.0181
      3 C         138.9560  139.1603  156.2897 C.ar    1  UNL1        0.0991
      4 N         137.7289  139.8132  155.7259 N.ar    1  UNL1       -0.2123
      5 C         136.8132  140.5908  156.6241 C.ar    1  UNL1        0.2207
      6 N         137.1247  140.7157  158.0861 N.ar    1  UNL1       -0.2108
      7 C         138.3518  140.0628  158.6499 C.ar    1  UNL1        0.1161
      8 C         138.6633  140.1876  160.1119 C.ar    1  UNL1        0.1619
      9 C         137.9840  139.4457  161.2246 C.ar    1  UNL1        0.0391
     10 C         138.6096  139.8758  162.5182 C.ar    1  UNL1        0.0312
     11 C         139.6757  140.8835  162.2051 C.ar    1  UNL1        0.1222
     12 O         139.7088  141.0762  160.7179 O.2     1  UNL1       -0.4565
     13 C         140.4785  141.4955  163.3146 C.3     1  UNL1        0.0857
     14 C         140.2152  141.0997  164.7372 C.3     1  UNL1        0.1017
     15 N         139.1491  140.0920  165.0504 N.am    1  UNL1       -0.2740
     16 C         138.8859  139.6962  166.4732 C.2     1  UNL1        0.2413
     17 O         137.8198  138.6885  166.7863 O.2     1  UNL1       -0.2737
     18 C         138.3464  139.4800  163.9409 C.3     1  UNL1        0.1229
     19 C         139.6887  140.3082  167.5826 C.3     1  UNL1        0.1901
     20 C         139.2517  140.1367  169.0074 C.1     1  UNL1        0.0830
     21 N         138.8149  139.9652  170.4320 N.1     1  UNL1       -0.1954
     22 N         135.5860  141.2438  156.0603 N.pl3   1  UNL1       -0.2825
     23 H         135.6696  142.0534  155.5065 H       1  UNL1        0.1551
     24 C         134.2317  140.6631  156.3403 C.ar    1  UNL1        0.0505
     25 C         134.0934  139.5002  157.2776 C.ar    1  UNL1        0.0159
     26 C         132.7390  138.9194  157.5576 C.ar    1  UNL1        0.0158
     27 C         131.5229  139.5017  156.9003 C.ar    1  UNL1        0.0481
     28 C         131.6611  140.6646  155.9631 C.ar    1  UNL1        0.0158
     29 C         133.0155  141.2453  155.6830 C.ar    1  UNL1        0.0159
     30 N         130.1685  138.9210  157.1803 N.pl3   1  UNL1       -0.3028
     31 C         129.4172  139.3301  158.4125 C.3     1  UNL1        0.1231
     32 C         128.0628  138.7493  158.6925 C.3     1  UNL1        0.1636
     33 O         127.4597  137.7595  157.7403 O.3     1  UNL1       -0.3501
     34 C         128.2111  137.3504  156.5082 C.3     1  UNL1        0.1636
     35 C         129.5654  137.9311  156.2282 C.3     1  UNL1        0.1231
@<TRIPOS>BOND
     1     1     2    1
     2     2     3   ar
     3     3     4   ar
     4     4     5   ar
     5     5    22    1
     6    22    24    1
     7    24    25   ar
     8    25    26   ar
     9    26    27   ar
    10    27    30    1
    11    30    31    1
    12    31    32    1
    13    32    33    1
    14    33    34    1
    15    34    35    1
    16    27    28   ar
    17    28    29   ar
    18     5     6   ar
    19     6     7   ar
    20     7     8    1
    21     8     9   ar
    22     9    10   ar
    23    10    11   ar
    24    11    12   ar
    25    11    13    1
    26    13    14    1
    27    14    15    1
    28    15    16   am
    29    16    17    2
    30    16    19    1
    31    19    20    1
    32    20    21    3
    33    15    18    1
    34     7     2   ar
    35    12     8   ar
    36    29    24   ar
    37    18    10    1
    38    35    30    1
    39    22    23    1
