@<TRIPOS>MOLECULE
*****
 29 32 0 0 0
SMALL
GASTEIGER

@<TRIPOS>ATOM
      1 C         137.7350  138.7980  166.9747 C.3     1  UNL1        0.0376
      2 C         139.0164  139.5774  166.9962 C.ar    1  UNL1        0.0516
      3 C         139.7282  139.8859  165.7122 C.ar    1  UNL1        0.1442
      4 O         141.0096  140.6653  165.7337 O.2     1  UNL1       -0.4534
      5 C         141.5793  141.1362  167.0390 C.ar    1  UNL1        0.1544
      6 C         142.8607  141.9156  167.0604 C.ar    1  UNL1        0.1102
      7 C         143.4304  142.3865  168.3656 C.ar    1  UNL1        0.0095
      8 C         142.7187  142.0780  169.6494 C.ar    1  UNL1        0.0005
      9 C         141.4372  141.2986  169.6280 C.ar    1  UNL1        0.0062
     10 C         140.8675  140.8277  168.3228 C.ar    1  UNL1        0.0734
     11 C         139.5861  140.0483  168.3014 C.ar    1  UNL1        0.1975
     12 O         138.8744  139.7398  169.5852 O.2     1  UNL1       -0.2867
     13 C         139.1585  139.4150  164.4070 C.ar    1  UNL1        0.0343
     14 C         139.4570  138.0299  163.9145 C.ar    1  UNL1        0.0030
     15 C         138.8872  137.5590  162.6092 C.ar    1  UNL1        0.0001
     16 C         138.0191  138.4732  161.7965 C.ar    1  UNL1        0.0000
     17 C         137.7206  139.8582  162.2890 C.ar    1  UNL1        0.0001
     18 C         138.2903  140.3291  163.5942 C.ar    1  UNL1        0.0030
     19 C         143.5725  142.2241  165.7765 C.2     1  UNL1        0.3442
     20 O         144.1486  141.1112  164.9522 O.2     1  UNL1       -0.2448
     21 O         143.7080  143.6456  165.3169 O.3     1  UNL1       -0.4438
     22 C         143.2790  144.0302  163.9321 C.3     1  UNL1        0.2260
     23 C         142.2291  145.0838  163.7376 C.3     1  UNL1        0.1202
     24 N         140.7766  144.7219  163.8336 N.3     1  UNL1       -0.2696
     25 C         139.8366  145.0918  162.7248 C.3     1  UNL1        0.0722
     26 C         138.3841  144.7299  162.8209 C.3     1  UNL1        0.0174
     27 C         137.8716  143.9981  164.0258 C.3     1  UNL1        0.0029
     28 C         138.8116  143.6282  165.1346 C.3     1  UNL1        0.0174
     29 C         140.2641  143.9900  165.0385 C.3     1  UNL1        0.0722
@<TRIPOS>BOND
     1     1     2    1
     2     2     3   ar
     3     3    13    1
     4    13    14   ar
     5    14    15   ar
     6    15    16   ar
     7    16    17   ar
     8    17    18   ar
     9     3     4   ar
    10     4     5   ar
    11     5     6   ar
    12     6    19    1
    13    19    20    2
    14    19    21    1
    15    21    22    1
    16    22    23    1
    17    23    24    1
    18    24    25    1
    19    25    26    1
    20    26    27    1
    21    27    28    1
    22    28    29    1
    23     6     7   ar
    24     7     8   ar
    25     8     9   ar
    26     9    10   ar
    27    10    11   ar
    28    11    12    2
    29    11     2   ar
    30    18    13   ar
    31    10     5   ar
    32    29    24    1
@<TRIPOS>MOLECULE
*****
 29 32 0 0 0
SMALL
GASTEIGER

@<TRIPOS>ATOM
      1 C         139.1224  139.8898  168.5396 C.3     1  UNL1        0.0376
      2 C         139.4746  140.2958  167.1392 C.ar    1  UNL1        0.0516
      3 C         140.5679  141.2948  166.9005 C.ar    1  UNL1        0.1442
      4 O         140.9202  141.7008  165.5001 O.2     1  UNL1       -0.4534
      5 C         140.1791  141.1078  164.3385 C.ar    1  UNL1        0.1544
      6 C         140.5314  141.5138  162.9381 C.ar    1  UNL1        0.1102
      7 C         139.7905  140.9210  161.7765 C.ar    1  UNL1        0.0095
      8 C         138.6973  139.9221  162.0152 C.ar    1  UNL1        0.0005
      9 C         138.3450  139.5160  163.4156 C.ar    1  UNL1        0.0062
     10 C         139.0859  140.1089  164.5772 C.ar    1  UNL1        0.0734
     11 C         138.7337  139.7029  165.9776 C.ar    1  UNL1        0.1975
     12 O         137.6405  138.7040  166.2164 O.2     1  UNL1       -0.2867
     13 C         141.3088  141.8877  168.0622 C.ar    1  UNL1        0.0343
     14 C         140.6726  142.9687  168.8847 C.ar    1  UNL1        0.0030
     15 C         141.4136  143.5616  170.0464 C.ar    1  UNL1        0.0001
     16 C         142.7908  143.0734  170.3855 C.ar    1  UNL1        0.0000
     17 C         143.4270  141.9924  169.5630 C.ar    1  UNL1        0.0001
     18 C         142.6861  141.3995  168.4013 C.ar    1  UNL1        0.0030
     19 C         141.6247  142.5128  162.6994 C.2     1  UNL1        0.3442
     20 O         141.2851  143.9039  162.2529 O.2     1  UNL1       -0.2448
     21 O         143.0575  142.1205  162.9072 O.3     1  UNL1       -0.4438
     22 C         143.7431  141.2304  161.9135 C.3     1  UNL1        0.2260
     23 C         144.1257  139.8319  162.2981 C.3     1  UNL1        0.1202
     24 N         143.1740  138.9848  163.0898 N.3     1  UNL1       -0.2696
     25 C         143.2182  139.0081  164.5889 C.3     1  UNL1        0.0722
     26 C         142.2665  138.1610  165.3805 C.3     1  UNL1        0.0174
     27 C         141.2707  137.2905  164.6730 C.3     1  UNL1        0.0029
     28 C         141.2265  137.2672  163.1738 C.3     1  UNL1        0.0174
     29 C         142.1782  138.1143  162.3822 C.3     1  UNL1        0.0722
@<TRIPOS>BOND
     1     1     2    1
     2     2     3   ar
     3     3    13    1
     4    13    14   ar
     5    14    15   ar
     6    15    16   ar
     7    16    17   ar
     8    17    18   ar
     9     3     4   ar
    10     4     5   ar
    11     5     6   ar
    12     6    19    1
    13    19    20    2
    14    19    21    1
    15    21    22    1
    16    22    23    1
    17    23    24    1
    18    24    25    1
    19    25    26    1
    20    26    27    1
    21    27    28    1
    22    28    29    1
    23     6     7   ar
    24     7     8   ar
    25     8     9   ar
    26     9    10   ar
    27    10    11   ar
    28    11    12    2
    29    11     2   ar
    30    18    13   ar
    31    10     5   ar
    32    29    24    1
@<TRIPOS>MOLECULE
*****
 29 32 0 0 0
SMALL
GASTEIGER

@<TRIPOS>ATOM
      1 C         142.6750  139.1803  168.7667 C.3     1  UNL1        0.0376
      2 C         142.4103  139.6797  167.3773 C.ar    1  UNL1        0.0516
      3 C         141.5232  140.8705  167.1646 C.ar    1  UNL1        0.1442
      4 O         141.2585  141.3699  165.7752 O.2     1  UNL1       -0.4534
      5 C         141.8808  140.6785  164.5984 C.ar    1  UNL1        0.1544
      6 C         141.6160  141.1779  163.2090 C.ar    1  UNL1        0.1102
      7 C         142.2382  140.4865  162.0322 C.ar    1  UNL1        0.0095
      8 C         143.1252  139.2958  162.2449 C.ar    1  UNL1        0.0005
      9 C         143.3900  138.7964  163.6343 C.ar    1  UNL1        0.0062
     10 C         142.7677  139.4877  164.8111 C.ar    1  UNL1        0.0734
     11 C         143.0325  138.9883  166.2005 C.ar    1  UNL1        0.1975
     12 O         143.9195  137.7975  166.4132 O.2     1  UNL1       -0.2867
     13 C         140.9010  141.5619  168.3414 C.ar    1  UNL1        0.0343
     14 C         139.7996  140.8921  169.1085 C.ar    1  UNL1        0.0030
     15 C         139.1774  141.5835  170.2853 C.ar    1  UNL1        0.0001
     16 C         139.6565  142.9446  170.6949 C.ar    1  UNL1        0.0000
     17 C         140.7578  143.6144  169.9278 C.ar    1  UNL1        0.0001
     18 C         141.3800  142.9230  168.7510 C.ar    1  UNL1        0.0030
     19 C         140.7289  142.3687  162.9963 C.2     1  UNL1        0.3442
     20 O         141.0361  143.6653  163.6851 O.2     1  UNL1       -0.2448
     21 O         139.5347  142.2629  162.0949 O.3     1  UNL1       -0.4438
     22 C         138.1518  142.3627  162.6672 C.3     1  UNL1        0.2260
     23 C         137.3946  141.1169  163.0205 C.3     1  UNL1        0.1202
     24 N         138.1096  139.9573  163.6484 N.3     1  UNL1       -0.2696
     25 C         138.7166  138.8929  162.7833 C.3     1  UNL1        0.0722
     26 C         139.4316  137.7334  163.4113 C.3     1  UNL1        0.0174
     27 C         139.5394  137.6383  164.9044 C.3     1  UNL1        0.0029
     28 C         138.9324  138.7027  165.7695 C.3     1  UNL1        0.0174
     29 C         138.2175  139.8622  165.1415 C.3     1  UNL1        0.0722
@<TRIPOS>BOND
     1     1     2    1
     2     2     3   ar
     3     3    13    1
     4    13    14   ar
     5    14    15   ar
     6    15    16   ar
     7    16    17   ar
     8    17    18   ar
     9     3     4   ar
    10     4     5   ar
    11     5     6   ar
    12     6    19    1
    13    19    20    2
    14    19    21    1
    15    21    22    1
    16    22    23    1
    17    23    24    1
    18    24    25    1
    19    25    26    1
    20    26    27    1
    21    27    28    1
    22    28    29    1
    23     6     7   ar
    24     7     8   ar
    25     8     9   ar
    26     9    10   ar
    27    10    11   ar
    28    11    12    2
    29    11     2   ar
    30    18    13   ar
    31    10     5   ar
    32    29    24    1
@<TRIPOS>MOLECULE
*****
 29 32 0 0 0
SMALL
GASTEIGER

@<TRIPOS>ATOM
      1 C         142.8746  139.6694  166.4337 C.3     1  UNL1        0.0376
      2 C         141.9833  140.1707  165.3362 C.ar    1  UNL1        0.0516
      3 C         140.7317  140.9260  165.6725 C.ar    1  UNL1        0.1442
      4 O         139.8405  141.4272  164.5751 O.2     1  UNL1       -0.4534
      5 C         140.2008  141.1732  163.1413 C.ar    1  UNL1        0.1544
      6 C         139.3096  141.6744  162.0438 C.ar    1  UNL1        0.1102
      7 C         139.6699  141.4204  160.6101 C.ar    1  UNL1        0.0095
      8 C         140.9214  140.6652  160.2738 C.ar    1  UNL1        0.0005
      9 C         141.8127  140.1639  161.3713 C.ar    1  UNL1        0.0062
     10 C         141.4524  140.4179  162.8050 C.ar    1  UNL1        0.0734
     11 C         142.3437  139.9167  163.9025 C.ar    1  UNL1        0.1975
     12 O         143.5952  139.1614  163.5662 O.2     1  UNL1       -0.2867
     13 C         140.3714  141.1800  167.1063 C.ar    1  UNL1        0.0343
     14 C         139.6526  140.1272  167.8968 C.ar    1  UNL1        0.0030
     15 C         139.2922  140.3812  169.3306 C.ar    1  UNL1        0.0001
     16 C         139.6508  141.6880  169.9738 C.ar    1  UNL1        0.0000
     17 C         140.3696  142.7408  169.1833 C.ar    1  UNL1        0.0001
     18 C         140.7299  142.4868  167.7495 C.ar    1  UNL1        0.0030
     19 C         138.0579  142.4297  162.3802 C.2     1  UNL1        0.3442
     20 O         136.8994  141.7176  163.0131 O.2     1  UNL1       -0.2448
     21 O         137.9649  143.8972  162.0835 O.3     1  UNL1       -0.4438
     22 C         138.7479  144.8792  162.9035 C.3     1  UNL1        0.2260
     23 C         140.0586  145.4034  162.3961 C.3     1  UNL1        0.1202
     24 N         141.3305  144.6721  162.7088 N.3     1  UNL1       -0.2696
     25 C         142.2165  144.1984  161.5950 C.3     1  UNL1        0.0722
     26 C         143.4883  143.4672  161.9077 C.3     1  UNL1        0.0174
     27 C         143.8741  143.2098  163.3342 C.3     1  UNL1        0.0029
     28 C         142.9881  143.6835  164.4480 C.3     1  UNL1        0.0174
     29 C         141.7163  144.4147  164.1353 C.3     1  UNL1        0.0722
@<TRIPOS>BOND
     1     1     2    1
     2     2     3   ar
     3     3    13    1
     4    13    14   ar
     5    14    15   ar
     6    15    16   ar
     7    16    17   ar
     8    17    18   ar
     9     3     4   ar
    10     4     5   ar
    11     5     6   ar
    12     6    19    1
    13    19    20    2
    14    19    21    1
    15    21    22    1
    16    22    23    1
    17    23    24    1
    18    24    25    1
    19    25    26    1
    20    26    27    1
    21    27    28    1
    22    28    29    1
    23     6     7   ar
    24     7     8   ar
    25     8     9   ar
    26     9    10   ar
    27    10    11   ar
    28    11    12    2
    29    11     2   ar
    30    18    13   ar
    31    10     5   ar
    32    29    24    1
@<TRIPOS>MOLECULE
*****
 29 32 0 0 0
SMALL
GASTEIGER

@<TRIPOS>ATOM
      1 C         139.3778  139.9023  167.6896 C.3     1  UNL1        0.0376
      2 C         139.9844  140.3744  166.4015 C.ar    1  UNL1        0.0516
      3 C         141.0326  141.4473  166.4150 C.ar    1  UNL1        0.1442
      4 O         141.6392  141.9194  165.1268 O.2     1  UNL1       -0.4534
      5 C         141.1974  141.3186  163.8253 C.ar    1  UNL1        0.1544
      6 C         141.8039  141.7907  162.5372 C.ar    1  UNL1        0.1102
      7 C         141.3622  141.1900  161.2356 C.ar    1  UNL1        0.0095
      8 C         140.3139  140.1172  161.2222 C.ar    1  UNL1        0.0005
      9 C         139.7074  139.6451  162.5104 C.ar    1  UNL1        0.0062
     10 C         140.1491  140.2458  163.8119 C.ar    1  UNL1        0.0734
     11 C         139.5426  139.7737  165.1000 C.ar    1  UNL1        0.1975
     12 O         138.4944  138.7009  165.0866 O.2     1  UNL1       -0.2867
     13 C         141.4744  142.0480  167.7165 C.ar    1  UNL1        0.0343
     14 C         142.8316  141.7267  168.2685 C.ar    1  UNL1        0.0030
     15 C         143.2733  142.3275  169.5701 C.ar    1  UNL1        0.0001
     16 C         142.3578  143.2494  170.3196 C.ar    1  UNL1        0.0000
     17 C         141.0006  143.5707  169.7676 C.ar    1  UNL1        0.0001
     18 C         140.5588  142.9700  168.4661 C.ar    1  UNL1        0.0030
     19 C         142.8522  142.8636  162.5506 C.2     1  UNL1        0.3442
     20 O         144.3004  142.4956  162.6818 O.2     1  UNL1       -0.2448
     21 O         142.4522  144.3045  162.4328 O.3     1  UNL1       -0.4438
     22 C         141.5919  144.7529  161.2888 C.3     1  UNL1        0.2260
     23 C         140.1678  145.1552  161.5341 C.3     1  UNL1        0.1202
     24 N         139.3469  144.4237  162.5545 N.3     1  UNL1       -0.2696
     25 C         139.4876  144.7582  164.0100 C.3     1  UNL1        0.0722
     26 C         138.6667  144.0267  165.0303 C.3     1  UNL1        0.0174
     27 C         137.7053  142.9607  164.5952 C.3     1  UNL1        0.0029
     28 C         137.5647  142.6262  163.1398 C.3     1  UNL1        0.0174
     29 C         138.3855  143.3577  162.1195 C.3     1  UNL1        0.0722
@<TRIPOS>BOND
     1     1     2    1
     2     2     3   ar
     3     3    13    1
     4    13    14   ar
     5    14    15   ar
     6    15    16   ar
     7    16    17   ar
     8    17    18   ar
     9     3     4   ar
    10     4     5   ar
    11     5     6   ar
    12     6    19    1
    13    19    20    2
    14    19    21    1
    15    21    22    1
    16    22    23    1
    17    23    24    1
    18    24    25    1
    19    25    26    1
    20    26    27    1
    21    27    28    1
    22    28    29    1
    23     6     7   ar
    24     7     8   ar
    25     8     9   ar
    26     9    10   ar
    27    10    11   ar
    28    11    12    2
    29    11     2   ar
    30    18    13   ar
    31    10     5   ar
    32    29    24    1
@<TRIPOS>MOLECULE
*****
 29 32 0 0 0
SMALL
GASTEIGER

@<TRIPOS>ATOM
      1 C         142.6556  138.8881  165.6036 C.3     1  UNL1        0.0376
      2 C         142.1947  140.2706  165.2480 C.ar    1  UNL1        0.0516
      3 C         140.7369  140.6167  165.3195 C.ar    1  UNL1        0.1442
      4 O         140.2760  141.9991  164.9639 O.2     1  UNL1       -0.4534
      5 C         141.2729  143.0354  164.5368 C.ar    1  UNL1        0.1544
      6 C         140.8120  144.4179  164.1812 C.ar    1  UNL1        0.1102
      7 C         141.8089  145.4541  163.7541 C.ar    1  UNL1        0.0095
      8 C         143.2666  145.1079  163.6826 C.ar    1  UNL1        0.0005
      9 C         143.7275  143.7255  164.0382 C.ar    1  UNL1        0.0062
     10 C         142.7307  142.6892  164.4653 C.ar    1  UNL1        0.0734
     11 C         143.1916  141.3068  164.8209 C.ar    1  UNL1        0.1975
     12 O         144.6493  140.9606  164.7494 O.2     1  UNL1       -0.2867
     13 C         139.7401  139.5804  165.7466 C.ar    1  UNL1        0.0343
     14 C         138.9295  139.7877  166.9916 C.ar    1  UNL1        0.0030
     15 C         137.9326  138.7513  167.4187 C.ar    1  UNL1        0.0001
     16 C         137.7464  137.5078  166.6008 C.ar    1  UNL1        0.0000
     17 C         138.5570  137.3006  165.3558 C.ar    1  UNL1        0.0001
     18 C         139.5538  138.3368  164.9287 C.ar    1  UNL1        0.0030
     19 C         139.3542  144.7640  164.2527 C.2     1  UNL1        0.3442
     20 O         138.7398  145.1556  165.5638 O.2     1  UNL1       -0.2448
     21 O         138.5109  144.7185  163.0131 O.3     1  UNL1       -0.4438
     22 C         137.8067  143.4504  162.6311 C.3     1  UNL1        0.2260
     23 C         138.2783  142.6575  161.4484 C.3     1  UNL1        0.1202
     24 N         139.7414  142.3813  161.2658 N.3     1  UNL1       -0.2696
     25 C         140.6477  143.4552  160.7412 C.3     1  UNL1        0.0722
     26 C         142.1106  143.1790  160.5586 C.3     1  UNL1        0.0174
     27 C         142.6673  141.8288  160.9007 C.3     1  UNL1        0.0029
     28 C         141.7611  140.7548  161.4254 C.3     1  UNL1        0.0174
     29 C         140.2981  141.0311  161.6079 C.3     1  UNL1        0.0722
@<TRIPOS>BOND
     1     1     2    1
     2     2     3   ar
     3     3    13    1
     4    13    14   ar
     5    14    15   ar
     6    15    16   ar
     7    16    17   ar
     8    17    18   ar
     9     3     4   ar
    10     4     5   ar
    11     5     6   ar
    12     6    19    1
    13    19    20    2
    14    19    21    1
    15    21    22    1
    16    22    23    1
    17    23    24    1
    18    24    25    1
    19    25    26    1
    20    26    27    1
    21    27    28    1
    22    28    29    1
    23     6     7   ar
    24     7     8   ar
    25     8     9   ar
    26     9    10   ar
    27    10    11   ar
    28    11    12    2
    29    11     2   ar
    30    18    13   ar
    31    10     5   ar
    32    29    24    1
@<TRIPOS>MOLECULE
*****
 29 32 0 0 0
SMALL
GASTEIGER

@<TRIPOS>ATOM
      1 C         144.5801  143.0442  165.1356 C.3     1  UNL1        0.0376
      2 C         143.1693  143.1636  164.6402 C.ar    1  UNL1        0.0516
      3 C         142.1939  142.0491  164.8784 C.ar    1  UNL1        0.1442
      4 O         140.7831  142.1684  164.3829 O.2     1  UNL1       -0.4534
      5 C         140.3477  143.4023  163.6493 C.ar    1  UNL1        0.1544
      6 C         138.9369  143.5216  163.1539 C.ar    1  UNL1        0.1102
      7 C         138.5015  144.7554  162.4203 C.ar    1  UNL1        0.0095
      8 C         139.4768  145.8698  162.1822 C.ar    1  UNL1        0.0005
      9 C         140.8876  145.7504  162.6776 C.ar    1  UNL1        0.0062
     10 C         141.3230  144.5167  163.4112 C.ar    1  UNL1        0.0734
     11 C         142.7338  144.3973  163.9066 C.ar    1  UNL1        0.1975
     12 O         143.7092  145.5117  163.6684 O.2     1  UNL1       -0.2867
     13 C         142.6293  140.8153  165.6119 C.ar    1  UNL1        0.0343
     14 C         143.4734  139.7882  164.9172 C.ar    1  UNL1        0.0030
     15 C         143.9088  138.5544  165.6508 C.ar    1  UNL1        0.0001
     16 C         143.5002  138.3477  167.0792 C.ar    1  UNL1        0.0000
     17 C         142.6562  139.3748  167.7740 C.ar    1  UNL1        0.0001
     18 C         142.2208  140.6086  167.0404 C.ar    1  UNL1        0.0030
     19 C         137.9615  142.4071  163.3921 C.2     1  UNL1        0.3442
     20 O         137.6056  142.0088  164.7937 O.2     1  UNL1       -0.2448
     21 O         137.3422  141.6910  162.2286 O.3     1  UNL1       -0.4438
     22 C         138.1817  140.7966  161.3654 C.3     1  UNL1        0.2260
     23 C         138.1395  139.3101  161.5614 C.3     1  UNL1        0.1202
     24 N         139.0042  138.6663  162.6046 N.3     1  UNL1       -0.2696
     25 C         140.1779  137.8281  162.1929 C.3     1  UNL1        0.0722
     26 C         141.0425  137.1844  163.2360 C.3     1  UNL1        0.0174
     27 C         140.7333  137.3790  164.6908 C.3     1  UNL1        0.0029
     28 C         139.5596  138.2173  165.1025 C.3     1  UNL1        0.0174
     29 C         138.6950  138.8610  164.0594 C.3     1  UNL1        0.0722
@<TRIPOS>BOND
     1     1     2    1
     2     2     3   ar
     3     3    13    1
     4    13    14   ar
     5    14    15   ar
     6    15    16   ar
     7    16    17   ar
     8    17    18   ar
     9     3     4   ar
    10     4     5   ar
    11     5     6   ar
    12     6    19    1
    13    19    20    2
    14    19    21    1
    15    21    22    1
    16    22    23    1
    17    23    24    1
    18    24    25    1
    19    25    26    1
    20    26    27    1
    21    27    28    1
    22    28    29    1
    23     6     7   ar
    24     7     8   ar
    25     8     9   ar
    26     9    10   ar
    27    10    11   ar
    28    11    12    2
    29    11     2   ar
    30    18    13   ar
    31    10     5   ar
    32    29    24    1
@<TRIPOS>MOLECULE
*****
 29 32 0 0 0
SMALL
GASTEIGER

@<TRIPOS>ATOM
      1 C         144.4291  143.4513  165.4871 C.3     1  UNL1        0.0376
      2 C         143.8140  142.2226  164.8853 C.ar    1  UNL1        0.0516
      3 C         142.7017  141.5139  165.5998 C.ar    1  UNL1        0.1442
      4 O         142.0866  140.2852  164.9981 O.2     1  UNL1       -0.4534
      5 C         142.5839  139.7653  163.6819 C.ar    1  UNL1        0.1544
      6 C         141.9688  138.5366  163.0801 C.ar    1  UNL1        0.1102
      7 C         142.4661  138.0167  161.7639 C.ar    1  UNL1        0.0095
      8 C         143.5783  138.7254  161.0495 C.ar    1  UNL1        0.0005
      9 C         144.1934  139.9541  161.6512 C.ar    1  UNL1        0.0062
     10 C         143.6962  140.4740  162.9674 C.ar    1  UNL1        0.0734
     11 C         144.3112  141.7027  163.5691 C.ar    1  UNL1        0.1975
     12 O         145.4235  142.4114  162.8547 O.2     1  UNL1       -0.2867
     13 C         142.2044  142.0339  166.9160 C.ar    1  UNL1        0.0343
     14 C         140.8075  142.5679  167.0321 C.ar    1  UNL1        0.0030
     15 C         140.3103  143.0879  168.3484 C.ar    1  UNL1        0.0001
     16 C         141.2100  143.0738  169.5485 C.ar    1  UNL1        0.0000
     17 C         142.6069  142.5397  169.4324 C.ar    1  UNL1        0.0001
     18 C         143.1041  142.0198  168.1162 C.ar    1  UNL1        0.0030
     19 C         140.8565  137.8279  163.7946 C.2     1  UNL1        0.3442
     20 O         141.1718  136.7836  164.8242 O.2     1  UNL1       -0.2448
     21 O         139.4289  138.1635  163.4796 O.3     1  UNL1       -0.4438
     22 C         138.8441  139.4644  163.9441 C.3     1  UNL1        0.2260
     23 C         138.7560  140.6267  163.0000 C.3     1  UNL1        0.1202
     24 N         138.9689  142.0224  163.5069 N.3     1  UNL1       -0.2696
     25 C         137.8969  142.7017  164.3064 C.3     1  UNL1        0.0722
     26 C         138.1099  144.0973  164.8131 C.3     1  UNL1        0.0174
     27 C         139.3949  144.8136  164.5204 C.3     1  UNL1        0.0029
     28 C         140.4669  144.1343  163.7209 C.3     1  UNL1        0.0174
     29 C         140.2539  142.7387  163.2142 C.3     1  UNL1        0.0722
@<TRIPOS>BOND
     1     1     2    1
     2     2     3   ar
     3     3    13    1
     4    13    14   ar
     5    14    15   ar
     6    15    16   ar
     7    16    17   ar
     8    17    18   ar
     9     3     4   ar
    10     4     5   ar
    11     5     6   ar
    12     6    19    1
    13    19    20    2
    14    19    21    1
    15    21    22    1
    16    22    23    1
    17    23    24    1
    18    24    25    1
    19    25    26    1
    20    26    27    1
    21    27    28    1
    22    28    29    1
    23     6     7   ar
    24     7     8   ar
    25     8     9   ar
    26     9    10   ar
    27    10    11   ar
    28    11    12    2
    29    11     2   ar
    30    18    13   ar
    31    10     5   ar
    32    29    24    1
@<TRIPOS>MOLECULE
*****
 29 32 0 0 0
SMALL
GASTEIGER

@<TRIPOS>ATOM
      1 C         137.7291  138.7381  166.8842 C.3     1  UNL1        0.0376
      2 C         138.9818  139.5630  166.8685 C.ar    1  UNL1        0.0516
      3 C         139.6107  139.9470  165.5619 C.ar    1  UNL1        0.1442
      4 O         140.8634  140.7719  165.5462 O.2     1  UNL1       -0.4534
      5 C         141.4873  141.2128  166.8372 C.ar    1  UNL1        0.1544
      6 C         142.7400  142.0377  166.8215 C.ar    1  UNL1        0.1102
      7 C         143.3638  142.4787  168.1124 C.ar    1  UNL1        0.0095
      8 C         142.7349  142.0947  169.4189 C.ar    1  UNL1        0.0005
      9 C         141.4822  141.2698  169.4346 C.ar    1  UNL1        0.0062
     10 C         140.8584  140.8289  168.1437 C.ar    1  UNL1        0.0734
     11 C         139.6057  140.0040  168.1594 C.ar    1  UNL1        0.1975
     12 O         138.9768  139.6200  169.4659 O.2     1  UNL1       -0.2867
     13 C         138.9869  139.5060  164.2711 C.ar    1  UNL1        0.0343
     14 C         139.1536  138.0909  163.8023 C.ar    1  UNL1        0.0030
     15 C         138.5298  137.6500  162.5114 C.ar    1  UNL1        0.0001
     16 C         137.7391  138.6242  161.6893 C.ar    1  UNL1        0.0000
     17 C         137.5724  140.0392  162.1580 C.ar    1  UNL1        0.0001
     18 C         138.1962  140.4802  163.4489 C.ar    1  UNL1        0.0030
     19 C         143.3689  142.4217  165.5149 C.2     1  UNL1        0.3442
     20 O         142.9651  143.6957  164.8339 O.2     1  UNL1       -0.2448
     21 O         144.4015  141.5315  164.8893 O.3     1  UNL1       -0.4438
     22 C         144.1836  140.0482  164.8420 C.3     1  UNL1        0.2260
     23 C         144.5847  139.2697  163.6242 C.3     1  UNL1        0.1202
     24 N         143.5937  139.0380  162.5222 N.3     1  UNL1       -0.2696
     25 C         143.8319  137.9518  161.5156 C.3     1  UNL1        0.0722
     26 C         142.8409  137.7201  160.4136 C.3     1  UNL1        0.0174
     27 C         141.6118  138.5746  160.3183 C.3     1  UNL1        0.0029
     28 C         141.3736  139.6608  161.3250 C.3     1  UNL1        0.0174
     29 C         142.3646  139.8925  162.4269 C.3     1  UNL1        0.0722
@<TRIPOS>BOND
     1     1     2    1
     2     2     3   ar
     3     3    13    1
     4    13    14   ar
     5    14    15   ar
     6    15    16   ar
     7    16    17   ar
     8    17    18   ar
     9     3     4   ar
    10     4     5   ar
    11     5     6   ar
    12     6    19    1
    13    19    20    2
    14    19    21    1
    15    21    22    1
    16    22    23    1
    17    23    24    1
    18    24    25    1
    19    25    26    1
    20    26    27    1
    21    27    28    1
    22    28    29    1
    23     6     7   ar
    24     7     8   ar
    25     8     9   ar
    26     9    10   ar
    27    10    11   ar
    28    11    12    2
    29    11     2   ar
    30    18    13   ar
    31    10     5   ar
    32    29    24    1
