@<TRIPOS>MOLECULE
*****
 30 32 0 0 0
SMALL
GASTEIGER

@<TRIPOS>ATOM
      1 N         140.3609  142.9734  164.7144 N.ar    1  UNL1       -0.3137
      2 C         141.4021  143.2855  163.6807 C.ar    1  UNL1        0.1363
      3 N         141.8162  141.9960  163.0359 N.ar    1  UNL1       -0.2280
      4 C         141.0310  140.8870  163.6710 C.ar    1  UNL1        0.1175
      5 C         141.0187  139.4052  163.4388 C.ar    1  UNL1        0.1193
      6 N         140.1070  138.5274  164.2439 N.ar    1  UNL1       -0.2382
      7 C         139.2075  139.1314  165.2812 C.ar    1  UNL1        0.1542
      8 C         139.2198  140.6132  165.5135 C.ar    1  UNL1        0.0418
      9 C         140.1315  141.4910  164.7084 C.ar    1  UNL1        0.0816
     10 C         138.2958  138.2535  166.0863 C.3     1  UNL1        0.4349
     11 F         137.3841  137.3757  166.8914 F       1  UNL1       -0.1644
     12 F         138.5172  137.1324  165.1147 F       1  UNL1       -0.1644
     13 F         138.0744  139.3746  167.0580 F       1  UNL1       -0.1644
     14 C         138.4716  144.7159  165.0940 C.3     1  UNL1        0.0265
     15 C         139.6703  143.9688  165.5988 C.3     1  UNL1        0.1073
     16 C         141.9356  144.6479  163.3500 C.3     1  UNL1        0.1319
     17 C         143.2217  145.1185  163.9617 C.3     1  UNL1        0.0270
     18 N         141.1829  145.5396  162.4075 N.3     1  UNL1       -0.1735
     19 H         141.8114  146.3038  162.1600 H       1  UNL1        0.1492
     20 S         140.6451  144.9873  161.1208 S.O2    1  UNL1        0.0621
     21 O         142.0448  144.8152  160.6096 O.2     1  UNL1       -0.1529
     22 O         139.2454  145.1593  161.6320 O.2     1  UNL1       -0.1529
     23 C         140.1073  144.4349  159.8341 C.ar    1  UNL1        0.1411
     24 C         139.3310  143.1514  159.8351 C.ar    1  UNL1        0.0238
     25 C         138.7932  142.5991  158.5484 C.ar    1  UNL1        0.0310
     26 C         139.0316  143.3303  157.2606 C.ar    1  UNL1        0.1492
     27 N         139.8079  144.6139  157.2595 N.ar    1  UNL1       -0.2321
     28 C         140.3457  145.1662  158.5462 C.ar    1  UNL1        0.1195
     29 C         138.4938  142.7780  155.9739 C.1     1  UNL1        0.1198
     30 N         137.9560  142.2256  154.6871 N.1     1  UNL1       -0.1893
@<TRIPOS>BOND
     1    14    15    1
     2    15     1    1
     3     1     2   ar
     4     2    16    1
     5    16    17    1
     6    16    18    1
     7    18    20    1
     8    20    21    2
     9    20    22    2
    10    20    23    1
    11    23    24   ar
    12    24    25   ar
    13    25    26   ar
    14    26    29    1
    15    29    30    3
    16    26    27   ar
    17    27    28   ar
    18     2     3   ar
    19     3     4   ar
    20     4     5   ar
    21     5     6   ar
    22     6     7   ar
    23     7    10    1
    24    10    11    1
    25    10    12    1
    26    10    13    1
    27     7     8   ar
    28     8     9   ar
    29     9     1   ar
    30    28    23   ar
    31     9     4   ar
    32    18    19    1
@<TRIPOS>MOLECULE
*****
 30 32 0 0 0
SMALL
GASTEIGER

@<TRIPOS>ATOM
      1 N         142.1704  142.1581  165.6839 N.ar    1  UNL1       -0.3137
      2 C         141.6047  140.9853  166.4285 C.ar    1  UNL1        0.1363
      3 N         140.1272  140.9430  166.1731 N.ar    1  UNL1       -0.2280
      4 C         139.7798  142.0896  165.2705 C.ar    1  UNL1        0.1175
      5 C         138.4767  142.5468  164.6849 C.ar    1  UNL1        0.1193
      6 N         138.4365  143.7551  163.7970 N.ar    1  UNL1       -0.2382
      7 C         139.6992  144.5061  163.4947 C.ar    1  UNL1        0.1542
      8 C         141.0023  144.0489  164.0803 C.ar    1  UNL1        0.0418
      9 C         141.0425  142.8406  164.9682 C.ar    1  UNL1        0.0816
     10 C         139.6589  145.7145  162.6068 C.3     1  UNL1        0.4349
     11 F         139.6185  146.9227  161.7189 F       1  UNL1       -0.1644
     12 F         141.1215  145.9418  162.8497 F       1  UNL1       -0.1644
     13 F         138.1963  145.4871  162.3639 F       1  UNL1       -0.1644
     14 C         144.3565  142.6210  164.3585 C.3     1  UNL1        0.0265
     15 C         143.6110  142.5752  165.6593 C.3     1  UNL1        0.1073
     16 C         142.3803  140.0237  167.2793 C.3     1  UNL1        0.1319
     17 C         142.6164  140.3269  168.7292 C.3     1  UNL1        0.0270
     18 N         142.9197  138.7588  166.6801 N.3     1  UNL1       -0.1735
     19 H         142.3786  137.9907  167.0773 H       1  UNL1        0.1492
     20 S         142.9110  138.5706  165.1920 S.O2    1  UNL1        0.0621
     21 O         144.2750  139.1886  165.1059 O.2     1  UNL1       -0.1529
     22 O         141.5470  137.9525  165.2782 O.2     1  UNL1       -0.1529
     23 C         142.9023  138.3823  163.7039 C.ar    1  UNL1        0.1411
     24 C         144.0488  138.8851  162.8776 C.ar    1  UNL1        0.0238
     25 C         144.0401  138.6969  161.3895 C.ar    1  UNL1        0.0310
     26 C         142.8849  138.0059  160.7277 C.ar    1  UNL1        0.1492
     27 N         141.7383  137.5031  161.5540 N.ar    1  UNL1       -0.2321
     28 C         141.7470  137.6913  163.0421 C.ar    1  UNL1        0.1195
     29 C         142.8762  137.8176  159.2396 C.1     1  UNL1        0.1198
     30 N         142.8675  137.6294  157.7514 N.1     1  UNL1       -0.1893
@<TRIPOS>BOND
     1    14    15    1
     2    15     1    1
     3     1     2   ar
     4     2    16    1
     5    16    17    1
     6    16    18    1
     7    18    20    1
     8    20    21    2
     9    20    22    2
    10    20    23    1
    11    23    24   ar
    12    24    25   ar
    13    25    26   ar
    14    26    29    1
    15    29    30    3
    16    26    27   ar
    17    27    28   ar
    18     2     3   ar
    19     3     4   ar
    20     4     5   ar
    21     5     6   ar
    22     6     7   ar
    23     7    10    1
    24    10    11    1
    25    10    12    1
    26    10    13    1
    27     7     8   ar
    28     8     9   ar
    29     9     1   ar
    30    28    23   ar
    31     9     4   ar
    32    18    19    1
@<TRIPOS>MOLECULE
*****
 30 32 0 0 0
SMALL
GASTEIGER

@<TRIPOS>ATOM
      1 N         142.2066  141.1458  162.7702 N.ar    1  UNL1       -0.3137
      2 C         141.7878  139.7412  162.4515 C.ar    1  UNL1        0.1363
      3 N         140.4690  139.8010  161.7393 N.ar    1  UNL1       -0.2280
      4 C         140.0728  141.2426  161.6179 C.ar    1  UNL1        0.1175
      5 C         138.8728  141.9059  161.0095 C.ar    1  UNL1        0.1193
      6 N         138.7468  143.4003  161.0382 N.ar    1  UNL1       -0.2382
      7 C         139.8207  144.2314  161.6753 C.ar    1  UNL1        0.1542
      8 C         141.0206  143.5682  162.2838 C.ar    1  UNL1        0.0418
      9 C         141.1467  142.0738  162.2550 C.ar    1  UNL1        0.0816
     10 C         139.6946  145.7259  161.7040 C.3     1  UNL1        0.4349
     11 F         139.5685  147.2203  161.7327 F       1  UNL1       -0.1644
     12 F         139.1774  145.6553  163.1103 F       1  UNL1       -0.1644
     13 F         140.2117  145.7965  160.2978 F       1  UNL1       -0.1644
     14 C         143.4021  142.0430  164.8953 C.3     1  UNL1        0.0265
     15 C         143.4645  141.5514  163.4796 C.3     1  UNL1        0.1073
     16 C         142.5534  138.4954  162.7862 C.3     1  UNL1        0.1319
     17 C         143.6538  138.0256  161.8816 C.3     1  UNL1        0.0270
     18 N         142.2186  137.7196  164.0255 N.3     1  UNL1       -0.1735
     19 H         142.9963  137.0809  164.1921 H       1  UNL1        0.1492
     20 S         141.9661  138.4405  165.3164 S.O2    1  UNL1        0.0621
     21 O         143.4426  138.6341  165.4970 O.2     1  UNL1       -0.1529
     22 O         140.4897  138.2469  165.1358 O.2     1  UNL1       -0.1529
     23 C         141.7137  139.1614  166.6073 C.ar    1  UNL1        0.1411
     24 C         140.3930  139.8311  166.8465 C.ar    1  UNL1        0.0238
     25 C         140.1405  140.5521  168.1375 C.ar    1  UNL1        0.0310
     26 C         141.2087  140.6033  169.1892 C.ar    1  UNL1        0.1492
     27 N         142.5295  139.9336  168.9501 N.ar    1  UNL1       -0.2321
     28 C         142.7820  139.2127  167.6591 C.ar    1  UNL1        0.1195
     29 C         140.9563  141.3243  170.4801 C.1     1  UNL1        0.1198
     30 N         140.7038  142.0452  171.7711 N.1     1  UNL1       -0.1893
@<TRIPOS>BOND
     1    14    15    1
     2    15     1    1
     3     1     2   ar
     4     2    16    1
     5    16    17    1
     6    16    18    1
     7    18    20    1
     8    20    21    2
     9    20    22    2
    10    20    23    1
    11    23    24   ar
    12    24    25   ar
    13    25    26   ar
    14    26    29    1
    15    29    30    3
    16    26    27   ar
    17    27    28   ar
    18     2     3   ar
    19     3     4   ar
    20     4     5   ar
    21     5     6   ar
    22     6     7   ar
    23     7    10    1
    24    10    11    1
    25    10    12    1
    26    10    13    1
    27     7     8   ar
    28     8     9   ar
    29     9     1   ar
    30    28    23   ar
    31     9     4   ar
    32    18    19    1
@<TRIPOS>MOLECULE
*****
 30 32 0 0 0
SMALL
GASTEIGER

@<TRIPOS>ATOM
      1 N         142.5401  139.9713  164.4933 N.ar    1  UNL1       -0.3137
      2 C         142.7886  141.2950  163.8330 C.ar    1  UNL1        0.1363
      3 N         141.4891  142.0430  163.7905 N.ar    1  UNL1       -0.2280
      4 C         140.4374  141.1815  164.4245 C.ar    1  UNL1        0.1175
      5 C         138.9723  141.3975  164.6624 C.ar    1  UNL1        0.1193
      6 N         138.1567  140.3332  165.3347 N.ar    1  UNL1       -0.2382
      7 C         138.8063  139.0528  165.7690 C.ar    1  UNL1        0.1542
      8 C         140.2715  138.8368  165.5312 C.ar    1  UNL1        0.0418
      9 C         141.0870  139.9011  164.8589 C.ar    1  UNL1        0.0816
     10 C         137.9907  137.9884  166.4414 C.3     1  UNL1        0.4349
     11 F         137.1751  136.9241  167.1136 F       1  UNL1       -0.1644
     12 F         137.5126  138.9913  167.4491 F       1  UNL1       -0.1644
     13 F         138.4688  136.9856  165.4336 F       1  UNL1       -0.1644
     14 C         143.7828  138.3864  166.1345 C.3     1  UNL1        0.0265
     15 C         143.5648  138.9050  164.7441 C.3     1  UNL1        0.1073
     16 C         144.1054  141.7848  163.3075 C.3     1  UNL1        0.1319
     17 C         145.1698  142.2422  164.2602 C.3     1  UNL1        0.0270
     18 N         144.3578  141.8172  161.8292 N.3     1  UNL1       -0.1735
     19 H         144.2444  140.8619  161.4902 H       1  UNL1        0.1492
     20 S         143.5208  142.6929  160.9445 S.O2    1  UNL1        0.0621
     21 O         143.0319  141.4813  160.2078 O.2     1  UNL1       -0.1529
     22 O         144.0098  143.9046  161.6813 O.2     1  UNL1       -0.1529
     23 C         142.6839  143.5686  160.0598 C.ar    1  UNL1        0.1411
     24 C         142.9421  143.6077  158.5827 C.ar    1  UNL1        0.0238
     25 C         142.1051  144.4834  157.6980 C.ar    1  UNL1        0.0310
     26 C         141.0101  145.3200  158.2903 C.ar    1  UNL1        0.1492
     27 N         140.7519  145.2809  159.7675 N.ar    1  UNL1       -0.2321
     28 C         141.5888  144.4052  160.6522 C.ar    1  UNL1        0.1195
     29 C         140.1731  146.1956  157.4056 C.1     1  UNL1        0.1198
     30 N         139.3362  147.0713  156.5209 N.1     1  UNL1       -0.1893
@<TRIPOS>BOND
     1    14    15    1
     2    15     1    1
     3     1     2   ar
     4     2    16    1
     5    16    17    1
     6    16    18    1
     7    18    20    1
     8    20    21    2
     9    20    22    2
    10    20    23    1
    11    23    24   ar
    12    24    25   ar
    13    25    26   ar
    14    26    29    1
    15    29    30    3
    16    26    27   ar
    17    27    28   ar
    18     2     3   ar
    19     3     4   ar
    20     4     5   ar
    21     5     6   ar
    22     6     7   ar
    23     7    10    1
    24    10    11    1
    25    10    12    1
    26    10    13    1
    27     7     8   ar
    28     8     9   ar
    29     9     1   ar
    30    28    23   ar
    31     9     4   ar
    32    18    19    1
@<TRIPOS>MOLECULE
*****
 30 32 0 0 0
SMALL
GASTEIGER

@<TRIPOS>ATOM
      1 N         139.7226  141.5108  164.6188 N.ar    1  UNL1       -0.3137
      2 C         139.6026  142.6998  163.7123 C.ar    1  UNL1        0.1363
      3 N         140.9680  143.0140  163.1767 N.ar    1  UNL1       -0.2280
      4 C         141.9319  142.0191  163.7522 C.ar    1  UNL1        0.1175
      5 C         143.4110  141.8391  163.5797 C.ar    1  UNL1        0.1193
      6 N         144.1204  140.7301  164.2986 N.ar    1  UNL1       -0.2382
      7 C         143.3507  139.8011  165.1899 C.ar    1  UNL1        0.1542
      8 C         141.8716  139.9811  165.3624 C.ar    1  UNL1        0.0418
      9 C         141.1622  141.0901  164.6435 C.ar    1  UNL1        0.0816
     10 C         144.0602  138.6921  165.9088 C.3     1  UNL1        0.4349
     11 F         144.7697  137.5831  166.6277 F       1  UNL1       -0.1644
     12 F         142.8645  138.5009  166.7941 F       1  UNL1       -0.1644
     13 F         145.2559  138.8832  165.0236 F       1  UNL1       -0.1644
     14 C         138.1769  139.4613  165.0193 C.3     1  UNL1        0.0265
     15 C         138.6001  140.8572  165.3690 C.3     1  UNL1        0.1073
     16 C         138.3390  143.4440  163.3968 C.3     1  UNL1        0.1319
     17 C         137.7530  144.3879  164.4045 C.3     1  UNL1        0.0270
     18 N         137.6615  143.2443  162.0736 N.3     1  UNL1       -0.1735
     19 H         137.7209  144.1324  161.5754 H       1  UNL1        0.1492
     20 S         138.1530  142.1856  161.1315 S.O2    1  UNL1        0.0621
     21 O         138.9342  143.2200  160.3767 O.2     1  UNL1       -0.1529
     22 O         137.3718  141.1512  161.8863 O.2     1  UNL1       -0.1529
     23 C         138.6446  141.1269  160.1894 C.ar    1  UNL1        0.1411
     24 C         139.8006  140.2542  160.5791 C.ar    1  UNL1        0.0238
     25 C         140.2921  139.1955  159.6370 C.ar    1  UNL1        0.0310
     26 C         139.6276  139.0095  158.3052 C.ar    1  UNL1        0.1492
     27 N         138.4716  139.8823  157.9154 N.ar    1  UNL1       -0.2321
     28 C         137.9800  140.9410  158.8575 C.ar    1  UNL1        0.1195
     29 C         140.1192  137.9508  157.3631 C.1     1  UNL1        0.1198
     30 N         140.6107  136.8921  156.4210 N.1     1  UNL1       -0.1893
@<TRIPOS>BOND
     1    14    15    1
     2    15     1    1
     3     1     2   ar
     4     2    16    1
     5    16    17    1
     6    16    18    1
     7    18    20    1
     8    20    21    2
     9    20    22    2
    10    20    23    1
    11    23    24   ar
    12    24    25   ar
    13    25    26   ar
    14    26    29    1
    15    29    30    3
    16    26    27   ar
    17    27    28   ar
    18     2     3   ar
    19     3     4   ar
    20     4     5   ar
    21     5     6   ar
    22     6     7   ar
    23     7    10    1
    24    10    11    1
    25    10    12    1
    26    10    13    1
    27     7     8   ar
    28     8     9   ar
    29     9     1   ar
    30    28    23   ar
    31     9     4   ar
    32    18    19    1
@<TRIPOS>MOLECULE
*****
 30 32 0 0 0
SMALL
GASTEIGER

@<TRIPOS>ATOM
      1 N         141.2217  145.1088  160.8208 N.ar    1  UNL1       -0.3137
      2 C         142.3776  144.2270  161.1903 C.ar    1  UNL1        0.1363
      3 N         142.9723  143.6874  159.9233 N.ar    1  UNL1       -0.2280
      4 C         142.1840  144.2356  158.7709 C.ar    1  UNL1        0.1175
      5 C         142.3116  144.0484  157.2882 C.ar    1  UNL1        0.1193
      6 N         141.3572  144.7396  156.3601 N.ar    1  UNL1       -0.2382
      7 C         140.2753  145.6181  156.9148 C.ar    1  UNL1        0.1542
      8 C         140.1477  145.8053  158.3976 C.ar    1  UNL1        0.0418
      9 C         141.1021  145.1141  159.3256 C.ar    1  UNL1        0.0816
     10 C         139.3209  146.3094  155.9867 C.3     1  UNL1        0.4349
     11 F         138.3666  147.0006  155.0585 F       1  UNL1       -0.1644
     12 F         139.0953  147.3782  157.0146 F       1  UNL1       -0.1644
     13 F         139.5465  145.2406  154.9587 F       1  UNL1       -0.1644
     14 C         139.1594  145.1692  162.3997 C.3     1  UNL1        0.0265
     15 C         140.3403  145.8543  161.7785 C.3     1  UNL1        0.1073
     16 C         142.8550  143.9360  162.5822 C.3     1  UNL1        0.1319
     17 C         143.6146  144.9784  163.3478 C.3     1  UNL1        0.0270
     18 N         142.5727  142.6026  163.2084 N.3     1  UNL1       -0.1735
     19 H         143.3890  142.0165  163.0337 H       1  UNL1        0.1492
     20 S         142.2798  142.5105  164.6767 S.O2    1  UNL1        0.0621
     21 O         140.9367  143.1380  164.4481 O.2     1  UNL1       -0.1529
     22 O         143.6230  141.8830  164.9052 O.2     1  UNL1       -0.1529
     23 C         141.9869  142.4184  166.1449 C.ar    1  UNL1        0.1411
     24 C         143.1137  142.3124  167.1293 C.ar    1  UNL1        0.0238
     25 C         142.8209  142.2203  168.5975 C.ar    1  UNL1        0.0310
     26 C         141.4012  142.2342  169.0814 C.ar    1  UNL1        0.1492
     27 N         140.2742  142.3401  168.0970 N.ar    1  UNL1       -0.2321
     28 C         140.5671  142.4322  166.6288 C.ar    1  UNL1        0.1195
     29 C         141.1083  142.1421  170.5497 C.1     1  UNL1        0.1198
     30 N         140.8154  142.0500  172.0179 N.1     1  UNL1       -0.1893
@<TRIPOS>BOND
     1    14    15    1
     2    15     1    1
     3     1     2   ar
     4     2    16    1
     5    16    17    1
     6    16    18    1
     7    18    20    1
     8    20    21    2
     9    20    22    2
    10    20    23    1
    11    23    24   ar
    12    24    25   ar
    13    25    26   ar
    14    26    29    1
    15    29    30    3
    16    26    27   ar
    17    27    28   ar
    18     2     3   ar
    19     3     4   ar
    20     4     5   ar
    21     5     6   ar
    22     6     7   ar
    23     7    10    1
    24    10    11    1
    25    10    12    1
    26    10    13    1
    27     7     8   ar
    28     8     9   ar
    29     9     1   ar
    30    28    23   ar
    31     9     4   ar
    32    18    19    1
@<TRIPOS>MOLECULE
*****
 30 32 0 0 0
SMALL
GASTEIGER

@<TRIPOS>ATOM
      1 N         140.4849  140.6937  162.7999 N.ar    1  UNL1       -0.3137
      2 C         141.7045  139.8205  162.7854 C.ar    1  UNL1        0.1363
      3 N         142.8598  140.6462  162.3021 N.ar    1  UNL1       -0.2280
      4 C         142.3543  142.0295  162.0180 C.ar    1  UNL1        0.1175
      5 C         143.0409  143.2662  161.5189 C.ar    1  UNL1        0.1193
      6 N         142.2596  144.5323  161.3274 N.ar    1  UNL1       -0.2382
      7 C         140.7918  144.5617  161.6351 C.ar    1  UNL1        0.1542
      8 C         140.1052  143.3250  162.1342 C.ar    1  UNL1        0.0418
      9 C         140.8865  142.0589  162.3257 C.ar    1  UNL1        0.0816
     10 C         140.0105  145.8278  161.4436 C.3     1  UNL1        0.4349
     11 F         139.2293  147.0939  161.2522 F       1  UNL1       -0.1644
     12 F         140.3373  145.8081  159.9798 F       1  UNL1       -0.1644
     13 F         139.6838  145.8475  162.9075 F       1  UNL1       -0.1644
     14 C         138.4978  140.8343  164.4677 C.3     1  UNL1        0.0265
     15 C         139.1058  140.2751  163.2157 C.3     1  UNL1        0.1073
     16 C         141.7592  138.3755  163.1841 C.3     1  UNL1        0.1319
     17 C         141.1312  137.3317  162.3088 C.3     1  UNL1        0.0270
     18 N         142.4419  137.9743  164.4580 N.3     1  UNL1       -0.1735
     19 H         143.3863  137.6824  164.2066 H       1  UNL1        0.1492
     20 S         142.5777  138.9615  165.5792 S.O2    1  UNL1        0.0621
     21 O         141.1160  138.8169  165.8835 O.2     1  UNL1       -0.1529
     22 O         144.0394  139.1060  165.2749 O.2     1  UNL1       -0.1529
     23 C         142.7135  139.9486  166.7004 C.ar    1  UNL1        0.1411
     24 C         142.9058  141.4051  166.3981 C.ar    1  UNL1        0.0238
     25 C         143.0417  142.3923  167.5193 C.ar    1  UNL1        0.0310
     26 C         142.9852  141.9229  168.9428 C.ar    1  UNL1        0.1492
     27 N         142.7928  140.4663  169.2452 N.ar    1  UNL1       -0.2321
     28 C         142.6570  139.4791  168.1240 C.ar    1  UNL1        0.1195
     29 C         143.1210  142.9100  170.0640 C.1     1  UNL1        0.1198
     30 N         143.2568  143.8972  171.1852 N.1     1  UNL1       -0.1893
@<TRIPOS>BOND
     1    14    15    1
     2    15     1    1
     3     1     2   ar
     4     2    16    1
     5    16    17    1
     6    16    18    1
     7    18    20    1
     8    20    21    2
     9    20    22    2
    10    20    23    1
    11    23    24   ar
    12    24    25   ar
    13    25    26   ar
    14    26    29    1
    15    29    30    3
    16    26    27   ar
    17    27    28   ar
    18     2     3   ar
    19     3     4   ar
    20     4     5   ar
    21     5     6   ar
    22     6     7   ar
    23     7    10    1
    24    10    11    1
    25    10    12    1
    26    10    13    1
    27     7     8   ar
    28     8     9   ar
    29     9     1   ar
    30    28    23   ar
    31     9     4   ar
    32    18    19    1
@<TRIPOS>MOLECULE
*****
 30 32 0 0 0
SMALL
GASTEIGER

@<TRIPOS>ATOM
      1 N         142.3814  141.3557  164.4629 N.ar    1  UNL1       -0.3137
      2 C         142.3723  142.5626  163.5722 C.ar    1  UNL1        0.1363
      3 N         140.9686  142.7684  163.0850 N.ar    1  UNL1       -0.2280
      4 C         140.1102  141.6888  163.6746 C.ar    1  UNL1        0.1175
      5 C         138.6464  141.3879  163.5460 C.ar    1  UNL1        0.1193
      6 N         138.0557  140.2140  164.2690 N.ar    1  UNL1       -0.2382
      7 C         138.9289  139.3409  165.1207 C.ar    1  UNL1        0.1542
      8 C         140.3927  139.6417  165.2493 C.ar    1  UNL1        0.0418
      9 C         140.9834  140.8157  164.5262 C.ar    1  UNL1        0.0816
     10 C         138.3381  138.1668  165.8437 C.3     1  UNL1        0.4349
     11 F         137.7474  136.9929  166.5668 F       1  UNL1       -0.1644
     12 F         138.9278  137.2406  164.8218 F       1  UNL1       -0.1644
     13 F         137.7484  139.0930  166.8657 F       1  UNL1       -0.1644
     14 C         144.0612  139.4084  164.8320 C.3     1  UNL1        0.0265
     15 C         143.5784  140.7885  165.1668 C.3     1  UNL1        0.1073
     16 C         143.5585  143.4141  163.2290 C.3     1  UNL1        0.1319
     17 C         143.8375  144.6624  164.0125 C.3     1  UNL1        0.0270
     18 N         144.4657  143.0174  162.1023 N.3     1  UNL1       -0.1735
     19 H         145.3669  142.7828  162.5185 H       1  UNL1        0.1492
     20 S         144.0922  141.8744  161.2056 S.O2    1  UNL1        0.0621
     21 O         145.0117  140.9716  161.9734 O.2     1  UNL1       -0.1529
     22 O         143.1727  142.7772  160.4378 O.2     1  UNL1       -0.1529
     23 C         143.7187  140.7314  160.3089 C.ar    1  UNL1        0.1411
     24 C         143.0198  139.5311  160.8753 C.ar    1  UNL1        0.0238
     25 C         142.6463  138.3881  159.9786 C.ar    1  UNL1        0.0310
     26 C         142.9718  138.4454  158.5155 C.ar    1  UNL1        0.1492
     27 N         143.6707  139.6457  157.9490 N.ar    1  UNL1       -0.2321
     28 C         144.0442  140.7887  158.8457 C.ar    1  UNL1        0.1195
     29 C         142.5983  137.3024  157.6188 C.1     1  UNL1        0.1198
     30 N         142.2248  136.1594  156.7221 N.1     1  UNL1       -0.1893
@<TRIPOS>BOND
     1    14    15    1
     2    15     1    1
     3     1     2   ar
     4     2    16    1
     5    16    17    1
     6    16    18    1
     7    18    20    1
     8    20    21    2
     9    20    22    2
    10    20    23    1
    11    23    24   ar
    12    24    25   ar
    13    25    26   ar
    14    26    29    1
    15    29    30    3
    16    26    27   ar
    17    27    28   ar
    18     2     3   ar
    19     3     4   ar
    20     4     5   ar
    21     5     6   ar
    22     6     7   ar
    23     7    10    1
    24    10    11    1
    25    10    12    1
    26    10    13    1
    27     7     8   ar
    28     8     9   ar
    29     9     1   ar
    30    28    23   ar
    31     9     4   ar
    32    18    19    1
@<TRIPOS>MOLECULE
*****
 30 32 0 0 0
SMALL
GASTEIGER

@<TRIPOS>ATOM
      1 N         140.9725  142.8311  164.7232 N.ar    1  UNL1       -0.3137
      2 C         139.4828  142.7957  164.8956 C.ar    1  UNL1        0.1363
      3 N         139.0987  141.4103  165.3236 N.ar    1  UNL1       -0.2280
      4 C         140.3508  140.5896  165.4158 C.ar    1  UNL1        0.1175
      5 C         140.5861  139.1561  165.7897 C.ar    1  UNL1        0.1193
      6 N         141.9795  138.6008  165.7925 N.ar    1  UNL1       -0.2382
      7 C         143.1376  139.4790  165.4214 C.ar    1  UNL1        0.1542
      8 C         142.9023  140.9124  165.0476 C.ar    1  UNL1        0.0418
      9 C         141.5089  141.4677  165.0447 C.ar    1  UNL1        0.0816
     10 C         144.5310  138.9236  165.4243 C.3     1  UNL1        0.4349
     11 F         145.9244  138.3682  165.4271 F       1  UNL1       -0.1644
     12 F         144.1427  137.9547  166.5015 F       1  UNL1       -0.1644
     13 F         144.9194  139.8924  164.3471 F       1  UNL1       -0.1644
     14 C         142.2405  144.1528  162.8807 C.3     1  UNL1        0.0265
     15 C         141.7834  144.0211  164.3031 C.3     1  UNL1        0.1073
     16 C         138.5425  143.9439  164.6781 C.3     1  UNL1        0.1319
     17 C         138.4825  145.0633  165.6747 C.3     1  UNL1        0.0270
     18 N         137.6622  143.9728  163.4640 N.3     1  UNL1       -0.1735
     19 H         137.6990  144.9234  163.0961 H       1  UNL1        0.1492
     20 S         137.9413  143.0521  162.3131 S.O2    1  UNL1        0.0621
     21 O         137.0103  142.0340  162.9019 O.2     1  UNL1       -0.1529
     22 O         138.8723  144.0702  161.7244 O.2     1  UNL1       -0.1529
     23 C         138.2204  142.1314  161.1623 C.ar    1  UNL1        0.1411
     24 C         137.8399  140.6832  161.2511 C.ar    1  UNL1        0.0238
     25 C         138.1190  139.7625  160.1002 C.ar    1  UNL1        0.0310
     26 C         138.7786  140.2900  158.8606 C.ar    1  UNL1        0.1492
     27 N         139.1590  141.7383  158.7718 N.ar    1  UNL1       -0.2321
     28 C         138.8800  142.6589  159.9226 C.ar    1  UNL1        0.1195
     29 C         139.0577  139.3693  157.7098 C.1     1  UNL1        0.1198
     30 N         139.3367  138.4486  156.5589 N.1     1  UNL1       -0.1893
@<TRIPOS>BOND
     1    14    15    1
     2    15     1    1
     3     1     2   ar
     4     2    16    1
     5    16    17    1
     6    16    18    1
     7    18    20    1
     8    20    21    2
     9    20    22    2
    10    20    23    1
    11    23    24   ar
    12    24    25   ar
    13    25    26   ar
    14    26    29    1
    15    29    30    3
    16    26    27   ar
    17    27    28   ar
    18     2     3   ar
    19     3     4   ar
    20     4     5   ar
    21     5     6   ar
    22     6     7   ar
    23     7    10    1
    24    10    11    1
    25    10    12    1
    26    10    13    1
    27     7     8   ar
    28     8     9   ar
    29     9     1   ar
    30    28    23   ar
    31     9     4   ar
    32    18    19    1
