@<TRIPOS>MOLECULE
*****
 28 31 0 0 0
SMALL
GASTEIGER

@<TRIPOS>ATOM
      1 C         140.2802  138.4921  158.6563 C.ar    1  UNL1        0.1547
      2 C         140.0687  138.7017  160.1264 C.ar    1  UNL1        0.0384
      3 C         141.1976  138.4715  161.0869 C.ar    1  UNL1        0.0034
      4 C         142.5381  138.0317  160.5772 C.ar    1  UNL1        0.0017
      5 C         142.7496  137.8222  159.1070 C.ar    1  UNL1        0.0206
      6 C         141.6206  138.0524  158.1466 C.ar    1  UNL1        0.0994
      7 N         141.8322  137.8428  156.6765 N.ar    1  UNL1       -0.2839
      8 C         142.2432  138.8921  155.6864 C.ar    1  UNL1        0.1826
      9 N         142.3349  138.2449  154.3362 N.ar    1  UNL1       -0.2280
     10 C         141.9805  136.7957  154.4919 C.ar    1  UNL1        0.0786
     11 C         141.9433  135.7744  153.3940 C.3     1  UNL1        0.0538
     12 C         141.6698  136.5472  155.9381 C.ar    1  UNL1        0.0963
     13 C         138.8699  140.1049  157.1866 C.3     1  UNL1        0.2525
     14 O         139.1513  138.7223  157.6958 O.3     1  UNL1       -0.4700
     15 C         140.9861  138.6810  162.5570 C.2     1  UNL1        0.0079
     16 C         139.6502  139.1361  163.0651 C.2     1  UNL1        0.0937
     17 C         139.4386  139.3456  164.5353 C.2     1  UNL1        0.3691
     18 N         140.2066  140.4115  165.2591 N.2     1  UNL1       -0.0400
     19 C         139.9951  140.6211  166.7293 C.2     1  UNL1        0.1824
     20 C         140.7631  141.6869  167.4532 C.3     1  UNL1        0.1070
     21 C         140.5515  141.8965  168.9233 C.2     1  UNL1        0.0207
     22 BR        141.3196  142.9624  169.6472 Br      1  UNL1       -0.0532
     23 C         139.5718  141.0401  169.6696 C.2     1  UNL1        0.0032
     24 C         138.8038  139.9743  168.9457 C.2     1  UNL1        0.0106
     25 C         139.0154  139.7647  167.4756 C.2     1  UNL1        0.1210
     26 C         138.2473  138.6988  166.7517 C.2     1  UNL1        0.3788
     27 O         137.2677  137.8425  167.4980 O.2     1  UNL1       -0.2376
     28 N         138.4589  138.4893  165.2816 N.am    1  UNL1        0.0364
@<TRIPOS>BOND
     1    13    14    1
     2    14     1    1
     3     1     2   ar
     4     2     3   ar
     5     3    15    1
     6    15    16    2
     7    16    17    1
     8    17    18    1
     9    18    19    2
    10    19    20    1
    11    20    21    1
    12    21    22    1
    13    21    23    2
    14    23    24    1
    15    24    25    2
    16    25    26    1
    17    26    27    2
    18    26    28    1
    19     3     4   ar
    20     4     5   ar
    21     5     6   ar
    22     6     7    1
    23     7     8   ar
    24     8     9   ar
    25     9    10   ar
    26    10    11    1
    27    10    12   ar
    28     6     1   ar
    29    12     7   ar
    30    28    17    2
    31    25    19    1
@<TRIPOS>MOLECULE
*****
 28 31 0 0 0
SMALL
GASTEIGER

@<TRIPOS>ATOM
      1 C         138.6163  139.6918  163.6416 C.ar    1  UNL1        0.1547
      2 C         138.8822  139.4317  162.1885 C.ar    1  UNL1        0.0384
      3 C         139.8264  138.3391  161.7826 C.ar    1  UNL1        0.0034
      4 C         140.5046  137.5065  162.8298 C.ar    1  UNL1        0.0017
      5 C         140.2388  137.7666  164.2830 C.ar    1  UNL1        0.0206
      6 C         139.2946  138.8592  164.6889 C.ar    1  UNL1        0.0994
      7 N         139.0288  139.1193  166.1420 N.ar    1  UNL1       -0.2839
      8 C         137.8841  138.5703  166.9410 C.ar    1  UNL1        0.1826
      9 N         138.0088  139.0857  168.3442 N.ar    1  UNL1       -0.2280
     10 C         139.2306  139.9533  168.4124 C.ar    1  UNL1        0.0786
     11 C         139.7337  140.6735  169.6281 C.3     1  UNL1        0.0538
     12 C         139.8610  139.9740  167.0515 C.ar    1  UNL1        0.0963
     13 C         138.1797  142.1837  164.2328 C.3     1  UNL1        0.2525
     14 O         137.6722  140.7844  164.0475 O.3     1  UNL1       -0.4700
     15 C         140.0922  138.0790  160.3294 C.2     1  UNL1        0.0079
     16 C         141.4415  138.3812  159.7481 C.2     1  UNL1        0.0937
     17 C         141.7074  138.1211  158.2949 C.2     1  UNL1        0.3691
     18 N         140.5636  137.8862  157.3534 N.2     1  UNL1       -0.0400
     19 C         140.8295  137.6261  155.9002 C.2     1  UNL1        0.1824
     20 C         139.6856  137.3912  154.9588 C.3     1  UNL1        0.1070
     21 C         139.9516  137.1312  153.5057 C.2     1  UNL1        0.0207
     22 BR        138.8077  136.8962  152.5642 Br      1  UNL1       -0.0532
     23 C         141.3614  137.1061  152.9940 C.2     1  UNL1        0.0032
     24 C         142.5052  137.3410  153.9354 C.2     1  UNL1        0.0106
     25 C         142.2393  137.6011  155.3885 C.2     1  UNL1        0.1210
     26 C         143.3832  137.8360  156.3301 C.2     1  UNL1        0.3788
     27 O         144.7930  137.8109  155.8184 O.2     1  UNL1       -0.2376
     28 N         143.1172  138.0960  157.7832 N.am    1  UNL1        0.0364
@<TRIPOS>BOND
     1    13    14    1
     2    14     1    1
     3     1     2   ar
     4     2     3   ar
     5     3    15    1
     6    15    16    2
     7    16    17    1
     8    17    18    1
     9    18    19    2
    10    19    20    1
    11    20    21    1
    12    21    22    1
    13    21    23    2
    14    23    24    1
    15    24    25    2
    16    25    26    1
    17    26    27    2
    18    26    28    1
    19     3     4   ar
    20     4     5   ar
    21     5     6   ar
    22     6     7    1
    23     7     8   ar
    24     8     9   ar
    25     9    10   ar
    26    10    11    1
    27    10    12   ar
    28     6     1   ar
    29    12     7   ar
    30    28    17    2
    31    25    19    1
@<TRIPOS>MOLECULE
*****
 28 31 0 0 0
SMALL
GASTEIGER

@<TRIPOS>ATOM
      1 C         139.4266  143.5033  157.9322 C.ar    1  UNL1        0.1547
      2 C         139.2503  142.7199  159.1991 C.ar    1  UNL1        0.0384
      3 C         139.7092  143.2949  160.5064 C.ar    1  UNL1        0.0034
      4 C         140.3442  144.6532  160.5467 C.ar    1  UNL1        0.0017
      5 C         140.5205  145.4366  159.2797 C.ar    1  UNL1        0.0206
      6 C         140.0617  144.8616  157.9724 C.ar    1  UNL1        0.0994
      7 N         140.2379  145.6450  156.7055 N.ar    1  UNL1       -0.2839
      8 C         141.1709  145.3051  155.5812 C.ar    1  UNL1        0.1826
      9 N         141.0217  146.3559  154.5212 N.ar    1  UNL1       -0.2280
     10 C         139.9965  147.3453  154.9904 C.ar    1  UNL1        0.0786
     11 C         139.5365  148.5606  154.2412 C.3     1  UNL1        0.0538
     12 C         139.5121  146.9060  156.3403 C.ar    1  UNL1        0.0963
     13 C         137.6206  143.2944  156.0762 C.3     1  UNL1        0.2525
     14 O         138.9678  142.9284  156.6250 O.3     1  UNL1       -0.4700
     15 C         139.5329  142.5115  161.7734 C.2     1  UNL1        0.0079
     16 C         140.0804  143.0417  163.0653 C.2     1  UNL1        0.0937
     17 C         139.9042  142.2583  164.3323 C.2     1  UNL1        0.3691
     18 N         140.5348  142.7394  165.6054 N.2     1  UNL1       -0.0400
     19 C         140.3586  141.9560  166.8725 C.2     1  UNL1        0.1824
     20 C         140.9892  142.4371  168.1455 C.3     1  UNL1        0.1070
     21 C         140.8130  141.6538  169.4125 C.2     1  UNL1        0.0207
     22 BR        141.4437  142.1348  170.6857 Br      1  UNL1       -0.0532
     23 C         140.0061  140.3893  169.4064 C.2     1  UNL1        0.0032
     24 C         139.3754  139.9082  168.1333 C.2     1  UNL1        0.0106
     25 C         139.5517  140.6916  166.8663 C.2     1  UNL1        0.1210
     26 C         138.9210  140.2105  165.5931 C.2     1  UNL1        0.3788
     27 O         138.1141  138.9460  165.5870 O.2     1  UNL1       -0.2376
     28 N         139.0973  140.9939  164.3262 N.am    1  UNL1        0.0364
@<TRIPOS>BOND
     1    13    14    1
     2    14     1    1
     3     1     2   ar
     4     2     3   ar
     5     3    15    1
     6    15    16    2
     7    16    17    1
     8    17    18    1
     9    18    19    2
    10    19    20    1
    11    20    21    1
    12    21    22    1
    13    21    23    2
    14    23    24    1
    15    24    25    2
    16    25    26    1
    17    26    27    2
    18    26    28    1
    19     3     4   ar
    20     4     5   ar
    21     5     6   ar
    22     6     7    1
    23     7     8   ar
    24     8     9   ar
    25     9    10   ar
    26    10    11    1
    27    10    12   ar
    28     6     1   ar
    29    12     7   ar
    30    28    17    2
    31    25    19    1
@<TRIPOS>MOLECULE
*****
 28 31 0 0 0
SMALL
GASTEIGER

@<TRIPOS>ATOM
      1 C         142.8427  135.5561  156.5317 C.ar    1  UNL1        0.1547
      2 C         143.0167  136.7634  157.4047 C.ar    1  UNL1        0.0384
      3 C         141.9473  137.8142  157.4533 C.ar    1  UNL1        0.0034
      4 C         140.7039  137.6576  156.6290 C.ar    1  UNL1        0.0017
      5 C         140.5299  136.4501  155.7560 C.ar    1  UNL1        0.0206
      6 C         141.5993  135.3994  155.7074 C.ar    1  UNL1        0.0994
      7 N         141.4253  134.1921  154.8345 N.ar    1  UNL1       -0.2839
      8 C         141.5274  134.1638  153.3383 C.ar    1  UNL1        0.1826
      9 N         141.2838  132.7552  152.8836 N.ar    1  UNL1       -0.2280
     10 C         141.0312  131.9130  154.0989 C.ar    1  UNL1        0.0786
     11 C         140.7420  130.4412  154.1070 C.3     1  UNL1        0.0538
     12 C         141.1187  132.8010  155.3046 C.ar    1  UNL1        0.0963
     13 C         144.0456  133.5187  157.6050 C.3     1  UNL1        0.2525
     14 O         143.9121  134.5054  156.4831 O.3     1  UNL1       -0.4700
     15 C         142.1213  139.0215  158.3262 C.2     1  UNL1        0.0079
     16 C         143.0201  138.9568  159.5253 C.2     1  UNL1        0.0937
     17 C         143.1941  140.1641  160.3983 C.2     1  UNL1        0.3691
     18 N         142.1191  141.2086  160.4568 N.2     1  UNL1       -0.0400
     19 C         142.2932  142.4160  161.3298 C.2     1  UNL1        0.1824
     20 C         141.2182  143.4604  161.3883 C.3     1  UNL1        0.1070
     21 C         141.3923  144.6677  162.2612 C.2     1  UNL1        0.0207
     22 BR        140.3172  145.7122  162.3198 Br      1  UNL1       -0.0532
     23 C         142.6413  144.8305  163.0757 C.2     1  UNL1        0.0032
     24 C         143.7163  143.7861  163.0172 C.2     1  UNL1        0.0106
     25 C         143.5423  142.5788  162.1442 C.2     1  UNL1        0.1210
     26 C         144.6173  141.5343  162.0857 C.2     1  UNL1        0.3788
     27 O         145.8663  141.6971  162.9001 O.2     1  UNL1       -0.2376
     28 N         144.4432  140.3270  161.2127 N.am    1  UNL1        0.0364
@<TRIPOS>BOND
     1    13    14    1
     2    14     1    1
     3     1     2   ar
     4     2     3   ar
     5     3    15    1
     6    15    16    2
     7    16    17    1
     8    17    18    1
     9    18    19    2
    10    19    20    1
    11    20    21    1
    12    21    22    1
    13    21    23    2
    14    23    24    1
    15    24    25    2
    16    25    26    1
    17    26    27    2
    18    26    28    1
    19     3     4   ar
    20     4     5   ar
    21     5     6   ar
    22     6     7    1
    23     7     8   ar
    24     8     9   ar
    25     9    10   ar
    26    10    11    1
    27    10    12   ar
    28     6     1   ar
    29    12     7   ar
    30    28    17    2
    31    25    19    1
@<TRIPOS>MOLECULE
*****
 28 31 0 0 0
SMALL
GASTEIGER

@<TRIPOS>ATOM
      1 C         142.2989  139.9859  164.1597 C.ar    1  UNL1        0.1547
      2 C         142.4653  139.5655  162.7295 C.ar    1  UNL1        0.0384
      3 C         142.0286  138.1982  162.2939 C.ar    1  UNL1        0.0034
      4 C         141.4254  137.2512  163.2886 C.ar    1  UNL1        0.0017
      5 C         141.2591  137.6716  164.7189 C.ar    1  UNL1        0.0206
      6 C         141.6958  139.0389  165.1545 C.ar    1  UNL1        0.0994
      7 N         141.5294  139.4592  166.5847 N.ar    1  UNL1       -0.2839
      8 C         140.2499  139.9020  167.2304 C.ar    1  UNL1        0.1826
      9 N         140.5430  140.2270  168.6652 N.ar    1  UNL1       -0.2280
     10 C         142.0037  139.9850  168.9062 C.ar    1  UNL1        0.0786
     11 C         142.7275  140.1828  170.2049 C.3     1  UNL1        0.0538
     12 C         142.6132  139.5105  167.6204 C.ar    1  UNL1        0.0963
     13 C         141.7399  142.4730  164.6611 C.3     1  UNL1        0.2525
     14 O         142.7357  141.3531  164.5953 O.3     1  UNL1       -0.4700
     15 C         142.1950  137.7779  160.8637 C.2     1  UNL1        0.0079
     16 C         141.4109  138.4636  159.7844 C.2     1  UNL1        0.0937
     17 C         141.5772  138.0433  158.3541 C.2     1  UNL1        0.3691
     18 N         140.3783  137.9385  157.4589 N.2     1  UNL1       -0.0400
     19 C         140.5447  137.5182  156.0285 C.2     1  UNL1        0.1824
     20 C         139.3457  137.4135  155.1333 C.3     1  UNL1        0.1070
     21 C         139.5122  136.9932  153.7031 C.2     1  UNL1        0.0207
     22 BR        138.3132  136.8884  152.8077 Br      1  UNL1       -0.0532
     23 C         140.8775  136.6777  153.1681 C.2     1  UNL1        0.0032
     24 C         142.0765  136.7824  154.0633 C.2     1  UNL1        0.0106
     25 C         141.9101  137.2027  155.4935 C.2     1  UNL1        0.1210
     26 C         143.1090  137.3075  156.3889 C.2     1  UNL1        0.3788
     27 O         144.4744  136.9920  155.8539 O.2     1  UNL1       -0.2376
     28 N         142.9426  137.7278  157.8191 N.am    1  UNL1        0.0364
@<TRIPOS>BOND
     1    13    14    1
     2    14     1    1
     3     1     2   ar
     4     2     3   ar
     5     3    15    1
     6    15    16    2
     7    16    17    1
     8    17    18    1
     9    18    19    2
    10    19    20    1
    11    20    21    1
    12    21    22    1
    13    21    23    2
    14    23    24    1
    15    24    25    2
    16    25    26    1
    17    26    27    2
    18    26    28    1
    19     3     4   ar
    20     4     5   ar
    21     5     6   ar
    22     6     7    1
    23     7     8   ar
    24     8     9   ar
    25     9    10   ar
    26    10    11    1
    27    10    12   ar
    28     6     1   ar
    29    12     7   ar
    30    28    17    2
    31    25    19    1
@<TRIPOS>MOLECULE
*****
 28 31 0 0 0
SMALL
GASTEIGER

@<TRIPOS>ATOM
      1 C         143.9199  140.2857  158.5410 C.ar    1  UNL1        0.1547
      2 C         143.3772  140.0494  159.9192 C.ar    1  UNL1        0.0384
      3 C         143.4140  141.1493  160.9386 C.ar    1  UNL1        0.0034
      4 C         143.9935  142.4854  160.5796 C.ar    1  UNL1        0.0017
      5 C         144.5362  142.7217  159.2012 C.ar    1  UNL1        0.0206
      6 C         144.4994  141.6219  158.1820 C.ar    1  UNL1        0.0994
      7 N         145.0420  141.8582  156.8037 N.ar    1  UNL1       -0.2839
      8 C         144.2347  141.9585  155.5435 C.ar    1  UNL1        0.1826
      9 N         145.1811  142.1980  154.4045 N.ar    1  UNL1       -0.2280
     10 C         146.5733  142.2457  154.9609 C.ar    1  UNL1        0.0786
     11 C         147.8306  142.4649  154.1729 C.3     1  UNL1        0.0538
     12 C         146.4874  142.0356  156.4436 C.ar    1  UNL1        0.0963
     13 C         142.6406  138.3631  157.3506 C.3     1  UNL1        0.2525
     14 O         143.8831  139.1858  157.5217 O.3     1  UNL1       -0.4700
     15 C         142.8714  140.9129  162.3168 C.2     1  UNL1        0.0079
     16 C         141.3892  140.8512  162.5388 C.2     1  UNL1        0.0937
     17 C         140.8465  140.6149  163.9171 C.2     1  UNL1        0.3691
     18 N         141.1732  141.5708  165.0259 N.2     1  UNL1       -0.0400
     19 C         140.6304  141.3344  166.4042 C.2     1  UNL1        0.1824
     20 C         140.9572  142.2903  167.5130 C.3     1  UNL1        0.1070
     21 C         140.4144  142.0540  168.8913 C.2     1  UNL1        0.0207
     22 BR        140.7411  143.0099  170.0001 Br      1  UNL1       -0.0532
     23 C         139.5450  140.8617  169.1607 C.2     1  UNL1        0.0032
     24 C         139.2183  139.9058  168.0519 C.2     1  UNL1        0.0106
     25 C         139.7610  140.1422  166.6737 C.2     1  UNL1        0.1210
     26 C         139.4343  139.1863  165.5648 C.2     1  UNL1        0.3788
     27 O         138.5648  137.9940  165.8342 O.2     1  UNL1       -0.2376
     28 N         139.9770  139.4226  164.1866 N.am    1  UNL1        0.0364
@<TRIPOS>BOND
     1    13    14    1
     2    14     1    1
     3     1     2   ar
     4     2     3   ar
     5     3    15    1
     6    15    16    2
     7    16    17    1
     8    17    18    1
     9    18    19    2
    10    19    20    1
    11    20    21    1
    12    21    22    1
    13    21    23    2
    14    23    24    1
    15    24    25    2
    16    25    26    1
    17    26    27    2
    18    26    28    1
    19     3     4   ar
    20     4     5   ar
    21     5     6   ar
    22     6     7    1
    23     7     8   ar
    24     8     9   ar
    25     9    10   ar
    26    10    11    1
    27    10    12   ar
    28     6     1   ar
    29    12     7   ar
    30    28    17    2
    31    25    19    1
@<TRIPOS>MOLECULE
*****
 28 31 0 0 0
SMALL
GASTEIGER

@<TRIPOS>ATOM
      1 C         144.0887  140.1504  157.9775 C.ar    1  UNL1        0.1547
      2 C         143.6511  139.9691  159.4007 C.ar    1  UNL1        0.0384
      3 C         143.8333  141.0827  160.3891 C.ar    1  UNL1        0.0034
      4 C         144.4531  142.3775  159.9542 C.ar    1  UNL1        0.0017
      5 C         144.8907  142.5588  158.5309 C.ar    1  UNL1        0.0206
      6 C         144.7086  141.4453  157.5426 C.ar    1  UNL1        0.0994
      7 N         145.1462  141.6266  156.1194 N.ar    1  UNL1       -0.2839
      8 C         144.2428  141.7866  154.9327 C.ar    1  UNL1        0.1826
      9 N         145.1024  141.9386  153.7128 N.ar    1  UNL1       -0.2280
     10 C         146.5371  141.8727  154.1456 C.ar    1  UNL1        0.0786
     11 C         147.7344  141.9806  153.2487 C.3     1  UNL1        0.0538
     12 C         146.5642  141.6799  155.6329 C.ar    1  UNL1        0.0963
     13 C         142.5646  138.3852  156.8326 C.3     1  UNL1        0.2525
     14 O         143.9065  139.0369  156.9892 O.3     1  UNL1       -0.4700
     15 C         143.3956  140.9014  161.8123 C.2     1  UNL1        0.0079
     16 C         144.2778  140.1710  162.7809 C.2     1  UNL1        0.0937
     17 C         143.8402  139.9897  164.2042 C.2     1  UNL1        0.3691
     18 N         143.0400  141.0602  164.8850 N.2     1  UNL1       -0.0400
     19 C         142.6024  140.8789  166.3083 C.2     1  UNL1        0.1824
     20 C         141.8022  141.9494  166.9892 C.3     1  UNL1        0.1070
     21 C         141.3646  141.7680  168.4124 C.2     1  UNL1        0.0207
     22 BR        140.5644  142.8386  169.0933 Br      1  UNL1       -0.0532
     23 C         141.7272  140.5161  169.1547 C.2     1  UNL1        0.0032
     24 C         142.5274  139.4455  168.4739 C.2     1  UNL1        0.0106
     25 C         142.9650  139.6269  167.0507 C.2     1  UNL1        0.1210
     26 C         143.7652  138.5563  166.3698 C.2     1  UNL1        0.3788
     27 O         144.1278  137.3044  167.1122 O.2     1  UNL1       -0.2376
     28 N         144.2028  138.7377  164.9466 N.am    1  UNL1        0.0364
@<TRIPOS>BOND
     1    13    14    1
     2    14     1    1
     3     1     2   ar
     4     2     3   ar
     5     3    15    1
     6    15    16    2
     7    16    17    1
     8    17    18    1
     9    18    19    2
    10    19    20    1
    11    20    21    1
    12    21    22    1
    13    21    23    2
    14    23    24    1
    15    24    25    2
    16    25    26    1
    17    26    27    2
    18    26    28    1
    19     3     4   ar
    20     4     5   ar
    21     5     6   ar
    22     6     7    1
    23     7     8   ar
    24     8     9   ar
    25     9    10   ar
    26    10    11    1
    27    10    12   ar
    28     6     1   ar
    29    12     7   ar
    30    28    17    2
    31    25    19    1
@<TRIPOS>MOLECULE
*****
 28 31 0 0 0
SMALL
GASTEIGER

@<TRIPOS>ATOM
      1 C         140.0242  137.2326  156.6621 C.ar    1  UNL1        0.1547
      2 C         139.8714  138.2546  157.7493 C.ar    1  UNL1        0.0384
      3 C         141.0632  138.6724  158.5588 C.ar    1  UNL1        0.0034
      4 C         142.4077  138.0682  158.2809 C.ar    1  UNL1        0.0017
      5 C         142.5605  137.0461  157.1936 C.ar    1  UNL1        0.0206
      6 C         141.3687  136.6283  156.3842 C.ar    1  UNL1        0.0994
      7 N         141.5215  135.6063  155.2970 N.ar    1  UNL1       -0.2839
      8 C         141.5575  135.8852  153.8235 C.ar    1  UNL1        0.1826
      9 N         141.7234  134.5771  153.1081 N.ar    1  UNL1       -0.2280
     10 C         141.7898  133.4899  154.1395 C.ar    1  UNL1        0.0786
     11 C         141.9524  132.0241  153.8661 C.3     1  UNL1        0.0538
     12 C         141.6650  134.1260  155.4922 C.ar    1  UNL1        0.0963
     13 C         138.2375  137.7596  154.8511 C.3     1  UNL1        0.2525
     14 O         138.8324  136.8148  155.8527 O.3     1  UNL1       -0.4700
     15 C         140.9105  139.6944  159.6460 C.2     1  UNL1        0.0079
     16 C         139.6644  139.7210  160.4806 C.2     1  UNL1        0.0937
     17 C         139.5116  140.7430  161.5679 C.2     1  UNL1        0.3691
     18 N         140.1959  140.5423  162.8875 N.2     1  UNL1       -0.0400
     19 C         140.0431  141.5643  163.9748 C.2     1  UNL1        0.1824
     20 C         140.7274  141.3635  165.2944 C.3     1  UNL1        0.1070
     21 C         140.5746  142.3855  166.3816 C.2     1  UNL1        0.0207
     22 BR        141.2589  142.1848  167.7013 Br      1  UNL1       -0.0532
     23 C         139.7374  143.6083  166.1492 C.2     1  UNL1        0.0032
     24 C         139.0531  143.8091  164.8296 C.2     1  UNL1        0.0106
     25 C         139.2059  142.7871  163.7424 C.2     1  UNL1        0.1210
     26 C         138.5216  142.9878  162.4227 C.2     1  UNL1        0.3788
     27 O         137.6844  144.2106  162.1904 O.2     1  UNL1       -0.2376
     28 N         138.6744  141.9658  161.3355 N.am    1  UNL1        0.0364
@<TRIPOS>BOND
     1    13    14    1
     2    14     1    1
     3     1     2   ar
     4     2     3   ar
     5     3    15    1
     6    15    16    2
     7    16    17    1
     8    17    18    1
     9    18    19    2
    10    19    20    1
    11    20    21    1
    12    21    22    1
    13    21    23    2
    14    23    24    1
    15    24    25    2
    16    25    26    1
    17    26    27    2
    18    26    28    1
    19     3     4   ar
    20     4     5   ar
    21     5     6   ar
    22     6     7    1
    23     7     8   ar
    24     8     9   ar
    25     9    10   ar
    26    10    11    1
    27    10    12   ar
    28     6     1   ar
    29    12     7   ar
    30    28    17    2
    31    25    19    1
@<TRIPOS>MOLECULE
*****
 28 31 0 0 0
SMALL
GASTEIGER

@<TRIPOS>ATOM
      1 C         141.6872  142.4418  165.6910 C.ar    1  UNL1        0.1547
      2 C         141.8097  142.8578  164.2551 C.ar    1  UNL1        0.0384
      3 C         140.7800  143.7626  163.6459 C.ar    1  UNL1        0.0034
      4 C         139.6278  144.2513  164.4727 C.ar    1  UNL1        0.0017
      5 C         139.5053  143.8352  165.9086 C.ar    1  UNL1        0.0206
      6 C         140.5350  142.9305  166.5178 C.ar    1  UNL1        0.0994
      7 N         140.4125  142.5144  167.9537 N.ar    1  UNL1       -0.2839
      8 C         140.4555  143.4275  169.1430 C.ar    1  UNL1        0.1826
      9 N         140.2950  142.5896  170.3768 N.ar    1  UNL1       -0.2280
     10 C         140.1528  141.1586  169.9500 C.ar    1  UNL1        0.0786
     11 C         139.9701  139.9810  170.8608 C.3     1  UNL1        0.0538
     12 C         140.2254  141.1121  168.4525 C.ar    1  UNL1        0.0963
     13 C         142.9809  140.1887  165.6982 C.3     1  UNL1        0.2525
     14 O         142.7169  141.5370  166.3001 O.3     1  UNL1       -0.4700
     15 C         140.9025  144.1787  162.2100 C.2     1  UNL1        0.0079
     16 C         141.6872  143.3354  161.2492 C.2     1  UNL1        0.0937
     17 C         141.8097  143.7514  159.8132 C.2     1  UNL1        0.3691
     18 N         140.8772  144.7817  159.2487 N.2     1  UNL1       -0.0400
     19 C         140.9998  145.1978  157.8127 C.2     1  UNL1        0.1824
     20 C         140.0672  146.2281  157.2482 C.3     1  UNL1        0.1070
     21 C         140.1898  146.6441  155.8123 C.2     1  UNL1        0.0207
     22 BR        139.2573  147.6745  155.2476 Br      1  UNL1       -0.0532
     23 C         141.2450  146.0297  154.9409 C.2     1  UNL1        0.0032
     24 C         142.1775  144.9994  155.5054 C.2     1  UNL1        0.0106
     25 C         142.0549  144.5834  156.9413 C.2     1  UNL1        0.1210
     26 C         142.9875  143.5530  157.5060 C.2     1  UNL1        0.3788
     27 O         144.0426  142.9387  156.6346 O.2     1  UNL1       -0.2376
     28 N         142.8649  143.1371  158.9419 N.am    1  UNL1        0.0364
@<TRIPOS>BOND
     1    13    14    1
     2    14     1    1
     3     1     2   ar
     4     2     3   ar
     5     3    15    1
     6    15    16    2
     7    16    17    1
     8    17    18    1
     9    18    19    2
    10    19    20    1
    11    20    21    1
    12    21    22    1
    13    21    23    2
    14    23    24    1
    15    24    25    2
    16    25    26    1
    17    26    27    2
    18    26    28    1
    19     3     4   ar
    20     4     5   ar
    21     5     6   ar
    22     6     7    1
    23     7     8   ar
    24     8     9   ar
    25     9    10   ar
    26    10    11    1
    27    10    12   ar
    28     6     1   ar
    29    12     7   ar
    30    28    17    2
    31    25    19    1
