@<TRIPOS>MOLECULE
*****
 21 23 0 0 0
SMALL
GASTEIGER

@<TRIPOS>ATOM
      1 C         137.1286  137.8648  167.4033 C.3     1  UNL1        0.0320
      2 C         138.1105  138.9640  167.1245 C.3     1  UNL1        0.1155
      3 C         138.2822  139.4796  165.7264 C.3     1  UNL1        0.0328
      4 C         139.2640  140.5788  165.4477 C.3     1  UNL1        0.0422
      5 C         139.4357  141.0943  164.0495 C.3     1  UNL1        0.0673
      6 S         140.4175  142.1935  163.7707 S.3     1  UNL1       -0.0807
      7 C         141.2278  142.7772  164.8901 C.2     1  UNL1        0.1483
      8 N         142.2096  143.8764  164.6114 N.pl3   1  UNL1       -0.3380
      9 N         141.0561  142.2616  166.2882 N.2     1  UNL1       -0.2468
     10 C         140.0742  141.1624  166.5670 C.3     1  UNL1        0.1513
     11 C         139.9026  140.6468  167.9650 C.3     1  UNL1        0.1701
     12 O         138.9207  139.5476  168.2438 O.3     1  UNL1       -0.3538
     13 H         142.3223  144.2147  163.6937 H       1  UNL1        0.1442
     14 H         142.7414  144.2594  165.3460 H       1  UNL1        0.1442
     15 C         140.8844  141.7460  167.6863 C.ar    1  UNL1        0.1088
     16 N         140.2514  142.7070  168.6486 N.ar    1  UNL1       -0.2440
     17 C         141.0616  143.2906  169.7679 C.ar    1  UNL1        0.0987
     18 C         142.5048  142.9133  169.9250 C.ar    1  UNL1        0.0230
     19 C         143.1379  141.9524  168.9628 C.ar    1  UNL1        0.0325
     20 C         142.3277  141.3687  167.8434 C.ar    1  UNL1        0.1555
     21 F         142.9607  140.4079  166.8812 F       1  UNL1       -0.2029
@<TRIPOS>BOND
     1     2     1    1
     2     2     3    1
     3     4     3    1
     4     4     5    1
     5     5     6    1
     6     6     7    1
     7     7     8    1
     8     7     9    2
     9     9    10    1
    10    10    15    1
    11    15    16   ar
    12    16    17   ar
    13    17    18   ar
    14    18    19   ar
    15    19    20   ar
    16    20    21    1
    17    10    11    1
    18    11    12    1
    19    12     2    1
    20    10     4    1
    21    20    15   ar
    22     8    13    1
    23     8    14    1
@<TRIPOS>MOLECULE
*****
 21 23 0 0 0
SMALL
GASTEIGER

@<TRIPOS>ATOM
      1 C         142.7081  141.0104  168.5789 C.3     1  UNL1        0.0320
      2 C         142.3606  141.6601  167.2724 C.3     1  UNL1        0.1155
      3 C         143.3837  142.4849  166.5493 C.3     1  UNL1        0.0328
      4 C         143.0362  143.1346  165.2428 C.3     1  UNL1        0.0422
      5 C         144.0594  143.9595  164.5197 C.3     1  UNL1        0.0673
      6 S         143.7119  144.6092  163.2132 S.3     1  UNL1       -0.0807
      7 C         142.3411  144.4340  162.6297 C.2     1  UNL1        0.1483
      8 N         141.9936  145.0837  161.3231 N.pl3   1  UNL1       -0.3380
      9 N         141.3180  143.6092  163.3527 N.2     1  UNL1       -0.2468
     10 C         141.6655  142.9595  164.6592 C.3     1  UNL1        0.1513
     11 C         140.6424  142.1347  165.3823 C.3     1  UNL1        0.1701
     12 O         140.9899  141.4850  166.6888 O.3     1  UNL1       -0.3538
     13 H         142.6651  145.6251  160.8485 H       1  UNL1        0.1442
     14 H         141.0940  144.9688  160.9401 H       1  UNL1        0.1442
     15 C         140.2948  142.7844  164.0757 C.ar    1  UNL1        0.1088
     16 N         139.9507  141.5271  163.3334 N.ar    1  UNL1       -0.2440
     17 C         138.5800  141.3520  162.7499 C.ar    1  UNL1        0.0987
     18 C         137.5534  142.4341  162.9086 C.ar    1  UNL1        0.0230
     19 C         137.8975  143.6913  163.6508 C.ar    1  UNL1        0.0325
     20 C         139.2683  143.8665  164.2344 C.ar    1  UNL1        0.1555
     21 F         139.6123  145.1237  164.9767 F       1  UNL1       -0.2029
@<TRIPOS>BOND
     1     2     1    1
     2     2     3    1
     3     4     3    1
     4     4     5    1
     5     5     6    1
     6     6     7    1
     7     7     8    1
     8     7     9    2
     9     9    10    1
    10    10    15    1
    11    15    16   ar
    12    16    17   ar
    13    17    18   ar
    14    18    19   ar
    15    19    20   ar
    16    20    21    1
    17    10    11    1
    18    11    12    1
    19    12     2    1
    20    10     4    1
    21    20    15   ar
    22     8    13    1
    23     8    14    1
@<TRIPOS>MOLECULE
*****
 21 23 0 0 0
SMALL
GASTEIGER

@<TRIPOS>ATOM
      1 C         139.7436  141.2860  169.9000 C.3     1  UNL1        0.0320
      2 C         140.1449  140.7498  168.5578 C.3     1  UNL1        0.1155
      3 C         139.2044  139.8685  167.7905 C.3     1  UNL1        0.0328
      4 C         139.6057  139.3323  166.4483 C.3     1  UNL1        0.0422
      5 C         138.6651  138.4510  165.6810 C.3     1  UNL1        0.0673
      6 S         139.0664  137.9148  164.3388 S.3     1  UNL1       -0.0807
      7 C         140.4082  138.2600  163.7639 C.2     1  UNL1        0.1483
      8 N         140.8095  137.7238  162.4217 N.pl3   1  UNL1       -0.3380
      9 N         141.3487  139.1413  164.5311 N.2     1  UNL1       -0.2468
     10 C         140.9474  139.6775  165.8733 C.3     1  UNL1        0.1513
     11 C         141.8879  140.5588  166.6406 C.3     1  UNL1        0.1701
     12 O         141.4866  141.0950  167.9828 O.3     1  UNL1       -0.3538
     13 H         140.1922  137.1454  161.9181 H       1  UNL1        0.1442
     14 H         141.6901  137.9504  162.0443 H       1  UNL1        0.1442
     15 C         142.2891  140.0227  165.2984 C.ar    1  UNL1        0.1088
     16 N         142.5402  141.3972  164.7527 N.ar    1  UNL1       -0.2440
     17 C         143.8819  141.7424  164.1777 C.ar    1  UNL1        0.0987
     18 C         144.9726  140.7131  164.1485 C.ar    1  UNL1        0.0230
     19 C         144.7216  139.3386  164.6941 C.ar    1  UNL1        0.0325
     20 C         143.3798  138.9934  165.2691 C.ar    1  UNL1        0.1555
     21 F         143.1289  137.6189  165.8148 F       1  UNL1       -0.2029
@<TRIPOS>BOND
     1     2     1    1
     2     2     3    1
     3     4     3    1
     4     4     5    1
     5     5     6    1
     6     6     7    1
     7     7     8    1
     8     7     9    2
     9     9    10    1
    10    10    15    1
    11    15    16   ar
    12    16    17   ar
    13    17    18   ar
    14    18    19   ar
    15    19    20   ar
    16    20    21    1
    17    10    11    1
    18    11    12    1
    19    12     2    1
    20    10     4    1
    21    20    15   ar
    22     8    13    1
    23     8    14    1
@<TRIPOS>MOLECULE
*****
 21 23 0 0 0
SMALL
GASTEIGER

@<TRIPOS>ATOM
      1 C         138.1894  144.7278  165.3735 C.3     1  UNL1        0.0320
      2 C         139.4663  144.0324  165.0050 C.3     1  UNL1        0.1155
      3 C         140.5426  144.7784  164.2735 C.3     1  UNL1        0.0328
      4 C         141.8195  144.0830  163.9050 C.3     1  UNL1        0.0422
      5 C         142.8958  144.8291  163.1735 C.3     1  UNL1        0.0673
      6 S         144.1727  144.1337  162.8049 S.3     1  UNL1       -0.0807
      7 C         144.3733  142.6921  163.1679 C.2     1  UNL1        0.1483
      8 N         145.6502  141.9966  162.7994 N.pl3   1  UNL1       -0.3380
      9 N         143.2971  141.9460  163.8994 N.2     1  UNL1       -0.2468
     10 C         142.0202  142.6415  164.2679 C.3     1  UNL1        0.1513
     11 C         140.9439  141.8954  164.9994 C.3     1  UNL1        0.1701
     12 O         139.6670  142.5909  165.3679 O.3     1  UNL1       -0.3538
     13 H         146.3566  142.4863  162.3193 H       1  UNL1        0.1442
     14 H         145.7820  141.0505  163.0376 H       1  UNL1        0.1442
     15 C         142.2209  141.2000  164.6308 C.ar    1  UNL1        0.1088
     16 N         141.6610  140.1205  163.7526 N.ar    1  UNL1       -0.2440
     17 C         141.8617  138.6790  164.1155 C.ar    1  UNL1        0.0987
     18 C         142.6222  138.3169  165.3567 C.ar    1  UNL1        0.0230
     19 C         143.1821  139.3963  166.2349 C.ar    1  UNL1        0.0325
     20 C         142.9814  140.8379  165.8720 C.ar    1  UNL1        0.1555
     21 F         143.5413  141.9173  166.7502 F       1  UNL1       -0.2029
@<TRIPOS>BOND
     1     2     1    1
     2     2     3    1
     3     4     3    1
     4     4     5    1
     5     5     6    1
     6     6     7    1
     7     7     8    1
     8     7     9    2
     9     9    10    1
    10    10    15    1
    11    15    16   ar
    12    16    17   ar
    13    17    18   ar
    14    18    19   ar
    15    19    20   ar
    16    20    21    1
    17    10    11    1
    18    11    12    1
    19    12     2    1
    20    10     4    1
    21    20    15   ar
    22     8    13    1
    23     8    14    1
@<TRIPOS>MOLECULE
*****
 21 23 0 0 0
SMALL
GASTEIGER

@<TRIPOS>ATOM
      1 C         143.6619  138.1989  166.4086 C.3     1  UNL1        0.0320
      2 C         142.5383  138.7663  165.5928 C.3     1  UNL1        0.1155
      3 C         141.7191  137.8662  164.7160 C.3     1  UNL1        0.0328
      4 C         140.5955  138.4336  163.9002 C.3     1  UNL1        0.0422
      5 C         139.7763  137.5335  163.0235 C.3     1  UNL1        0.0673
      6 S         138.6527  138.1008  162.2076 S.3     1  UNL1       -0.0807
      7 C         138.3483  139.5684  162.2686 C.2     1  UNL1        0.1483
      8 N         137.2247  140.1358  161.4528 N.pl3   1  UNL1       -0.3380
      9 N         139.1675  140.4685  163.1453 N.2     1  UNL1       -0.2468
     10 C         140.2911  139.9011  163.9611 C.3     1  UNL1        0.1513
     11 C         141.1103  140.8012  164.8379 C.3     1  UNL1        0.1701
     12 O         142.2339  140.2338  165.6537 O.3     1  UNL1       -0.3538
     13 H         136.6870  139.5450  160.8773 H       1  UNL1        0.1442
     14 H         137.0249  141.0990  161.4928 H       1  UNL1        0.1442
     15 C         139.9867  141.3686  164.0221 C.ar    1  UNL1        0.1088
     16 N         140.9233  142.3557  163.3908 N.ar    1  UNL1       -0.2440
     17 C         140.6189  143.8232  163.4517 C.ar    1  UNL1        0.0987
     18 C         139.3779  144.3037  164.1439 C.ar    1  UNL1        0.0230
     19 C         138.4413  143.3166  164.7751 C.ar    1  UNL1        0.0325
     20 C         138.7457  141.8490  164.7142 C.ar    1  UNL1        0.1555
     21 F         137.8091  140.8620  165.3454 F       1  UNL1       -0.2029
@<TRIPOS>BOND
     1     2     1    1
     2     2     3    1
     3     4     3    1
     4     4     5    1
     5     5     6    1
     6     6     7    1
     7     7     8    1
     8     7     9    2
     9     9    10    1
    10    10    15    1
    11    15    16   ar
    12    16    17   ar
    13    17    18   ar
    14    18    19   ar
    15    19    20   ar
    16    20    21    1
    17    10    11    1
    18    11    12    1
    19    12     2    1
    20    10     4    1
    21    20    15   ar
    22     8    13    1
    23     8    14    1
@<TRIPOS>MOLECULE
*****
 21 23 0 0 0
SMALL
GASTEIGER

@<TRIPOS>ATOM
      1 C         144.9773  142.8324  164.1088 C.3     1  UNL1        0.0320
      2 C         143.8570  142.1672  164.8520 C.3     1  UNL1        0.1155
      3 C         143.5717  142.5462  166.2750 C.3     1  UNL1        0.0328
      4 C         142.4514  141.8810  167.0181 C.3     1  UNL1        0.0422
      5 C         142.1662  142.2600  168.4412 C.3     1  UNL1        0.0673
      6 S         141.0459  141.5948  169.1844 S.3     1  UNL1       -0.0807
      7 C         140.2107  140.5505  168.5045 C.2     1  UNL1        0.1483
      8 N         139.0904  139.8853  169.2477 N.pl3   1  UNL1       -0.3380
      9 N         140.4959  140.1716  167.0815 N.2     1  UNL1       -0.2468
     10 C         141.6163  140.8368  166.3383 C.3     1  UNL1        0.1513
     11 C         141.9015  140.4578  164.9153 C.3     1  UNL1        0.1701
     12 O         143.0218  141.1231  164.1721 O.3     1  UNL1       -0.3538
     13 H         138.9032  140.1340  170.1816 H       1  UNL1        0.1442
     14 H         138.5422  139.2000  168.8014 H       1  UNL1        0.1442
     15 C         140.7811  139.7926  165.6585 C.ar    1  UNL1        0.1088
     16 N         141.3665  138.4455  165.3536 N.ar    1  UNL1       -0.2440
     17 C         140.5313  137.4014  164.6738 C.ar    1  UNL1        0.0987
     18 C         139.1109  137.7042  164.2988 C.ar    1  UNL1        0.0230
     19 C         138.5256  139.0512  164.6036 C.ar    1  UNL1        0.0325
     20 C         139.3607  140.0954  165.2834 C.ar    1  UNL1        0.1555
     21 F         138.7754  141.4424  165.5882 F       1  UNL1       -0.2029
@<TRIPOS>BOND
     1     2     1    1
     2     2     3    1
     3     4     3    1
     4     4     5    1
     5     5     6    1
     6     6     7    1
     7     7     8    1
     8     7     9    2
     9     9    10    1
    10    10    15    1
    11    15    16   ar
    12    16    17   ar
    13    17    18   ar
    14    18    19   ar
    15    19    20   ar
    16    20    21    1
    17    10    11    1
    18    11    12    1
    19    12     2    1
    20    10     4    1
    21    20    15   ar
    22     8    13    1
    23     8    14    1
@<TRIPOS>MOLECULE
*****
 21 23 0 0 0
SMALL
GASTEIGER

@<TRIPOS>ATOM
      1 C         138.7867  138.2419  165.4998 C.3     1  UNL1        0.0320
      2 C         139.5226  139.4880  165.1053 C.3     1  UNL1        0.1155
      3 C         138.8230  140.8144  165.1380 C.3     1  UNL1        0.0328
      4 C         139.5590  142.0605  164.7435 C.3     1  UNL1        0.0422
      5 C         138.8593  143.3869  164.7763 C.3     1  UNL1        0.0673
      6 S         139.5953  144.6330  164.3817 S.3     1  UNL1       -0.0807
      7 C         141.0309  144.5526  163.9543 C.2     1  UNL1        0.1483
      8 N         141.7669  145.7987  163.5598 N.pl3   1  UNL1       -0.3380
      9 N         141.7305  143.2262  163.9216 N.2     1  UNL1       -0.2468
     10 C         140.9946  141.9801  164.3161 C.3     1  UNL1        0.1513
     11 C         141.6941  140.6537  164.2833 C.3     1  UNL1        0.1701
     12 O         140.9582  139.4076  164.6779 O.3     1  UNL1       -0.3538
     13 H         141.3077  146.6692  163.5813 H       1  UNL1        0.1442
     14 H         142.7091  145.7459  163.2793 H       1  UNL1        0.1442
     15 C         142.4301  141.8997  163.8888 C.ar    1  UNL1        0.1088
     16 N         142.7801  141.3617  162.5330 N.ar    1  UNL1       -0.2440
     17 C         144.2156  141.2813  162.1056 C.ar    1  UNL1        0.0987
     18 C         145.3013  141.7390  163.0340 C.ar    1  UNL1        0.0230
     19 C         144.9514  142.2770  164.3897 C.ar    1  UNL1        0.0325
     20 C         143.5158  142.3574  164.8172 C.ar    1  UNL1        0.1555
     21 F         143.1659  142.8954  166.1729 F       1  UNL1       -0.2029
@<TRIPOS>BOND
     1     2     1    1
     2     2     3    1
     3     4     3    1
     4     4     5    1
     5     5     6    1
     6     6     7    1
     7     7     8    1
     8     7     9    2
     9     9    10    1
    10    10    15    1
    11    15    16   ar
    12    16    17   ar
    13    17    18   ar
    14    18    19   ar
    15    19    20   ar
    16    20    21    1
    17    10    11    1
    18    11    12    1
    19    12     2    1
    20    10     4    1
    21    20    15   ar
    22     8    13    1
    23     8    14    1
@<TRIPOS>MOLECULE
*****
 21 23 0 0 0
SMALL
GASTEIGER

@<TRIPOS>ATOM
      1 C         144.0175  145.1467  164.3380 C.3     1  UNL1        0.0320
      2 C         142.8244  144.2493  164.1921 C.3     1  UNL1        0.1155
      3 C         141.4962  144.8254  163.7998 C.3     1  UNL1        0.0328
      4 C         140.3031  143.9281  163.6539 C.3     1  UNL1        0.0422
      5 C         138.9748  144.5042  163.2617 C.3     1  UNL1        0.0673
      6 S         137.7817  143.6069  163.1157 S.3     1  UNL1       -0.0807
      7 C         137.9169  142.1334  163.3620 C.2     1  UNL1        0.1483
      8 N         136.7238  141.2360  163.2161 N.pl3   1  UNL1       -0.3380
      9 N         139.2452  141.5573  163.7542 N.2     1  UNL1       -0.2468
     10 C         140.4382  142.4546  163.9002 C.3     1  UNL1        0.1513
     11 C         141.7665  141.8785  164.2924 C.3     1  UNL1        0.1701
     12 O         142.9596  142.7759  164.4383 O.3     1  UNL1       -0.3538
     13 H         135.8521  141.6141  162.9587 H       1  UNL1        0.1442
     14 H         136.8125  140.2689  163.3777 H       1  UNL1        0.1442
     15 C         140.5734  140.9812  164.1465 C.ar    1  UNL1        0.1088
     16 N         141.2834  140.1159  163.1479 N.ar    1  UNL1       -0.2440
     17 C         141.4186  138.6424  163.3941 C.ar    1  UNL1        0.0987
     18 C         140.8437  138.0343  164.6390 C.ar    1  UNL1        0.0230
     19 C         140.1337  138.8995  165.6375 C.ar    1  UNL1        0.0325
     20 C         139.9985  140.3730  165.3913 C.ar    1  UNL1        0.1555
     21 F         139.2885  141.2382  166.3899 F       1  UNL1       -0.2029
@<TRIPOS>BOND
     1     2     1    1
     2     2     3    1
     3     4     3    1
     4     4     5    1
     5     5     6    1
     6     6     7    1
     7     7     8    1
     8     7     9    2
     9     9    10    1
    10    10    15    1
    11    15    16   ar
    12    16    17   ar
    13    17    18   ar
    14    18    19   ar
    15    19    20   ar
    16    20    21    1
    17    10    11    1
    18    11    12    1
    19    12     2    1
    20    10     4    1
    21    20    15   ar
    22     8    13    1
    23     8    14    1
@<TRIPOS>MOLECULE
*****
 21 23 0 0 0
SMALL
GASTEIGER

@<TRIPOS>ATOM
      1 C         138.7379  144.6872  165.3391 C.3     1  UNL1        0.0320
      2 C         139.3957  143.3980  164.9453 C.3     1  UNL1        0.1155
      3 C         138.5847  142.1395  164.8539 C.3     1  UNL1        0.0328
      4 C         139.2425  140.8502  164.4601 C.3     1  UNL1        0.0422
      5 C         138.4314  139.5917  164.3687 C.3     1  UNL1        0.0673
      6 S         139.0893  138.3024  163.9749 S.3     1  UNL1       -0.0807
      7 C         140.5582  138.2717  163.6725 C.2     1  UNL1        0.1483
      8 N         141.2160  136.9825  163.2787 N.pl3   1  UNL1       -0.3380
      9 N         141.3692  139.5302  163.7640 N.2     1  UNL1       -0.2468
     10 C         140.7114  140.8195  164.1578 C.3     1  UNL1        0.1513
     11 C         141.5224  142.0779  164.2492 C.3     1  UNL1        0.1701
     12 O         140.8646  143.3672  164.6430 O.3     1  UNL1       -0.3538
     13 H         140.6837  136.1565  163.2187 H       1  UNL1        0.1442
     14 H         142.1801  136.9623  163.0803 H       1  UNL1        0.1442
     15 C         142.1803  140.7887  163.8554 C.ar    1  UNL1        0.1088
     16 N         142.6994  141.4108  162.5930 N.ar    1  UNL1       -0.2440
     17 C         144.1682  141.3800  162.2907 C.ar    1  UNL1        0.0987
     18 C         145.1181  140.7271  163.2507 C.ar    1  UNL1        0.0230
     19 C         144.5990  140.1051  164.5130 C.ar    1  UNL1        0.0325
     20 C         143.1301  140.1358  164.8154 C.ar    1  UNL1        0.1555
     21 F         142.6110  139.5137  166.0778 F       1  UNL1       -0.2029
@<TRIPOS>BOND
     1     2     1    1
     2     2     3    1
     3     4     3    1
     4     4     5    1
     5     5     6    1
     6     6     7    1
     7     7     8    1
     8     7     9    2
     9     9    10    1
    10    10    15    1
    11    15    16   ar
    12    16    17   ar
    13    17    18   ar
    14    18    19   ar
    15    19    20   ar
    16    20    21    1
    17    10    11    1
    18    11    12    1
    19    12     2    1
    20    10     4    1
    21    20    15   ar
    22     8    13    1
    23     8    14    1
