@<TRIPOS>MOLECULE
*****
 25 27 0 0 0
SMALL
GASTEIGER

@<TRIPOS>ATOM
      1 O         139.3224  138.1799  164.2404 O.3     1  UNL1       -0.3457
      2 C         140.2704  141.5472  169.5808 C.ar    1  UNL1        0.3976
      3 C         140.8782  141.3665  168.2214 C.ar    1  UNL1        0.1780
      4 N         140.0603  140.3518  167.4790 N.ar    1  UNL1       -0.2724
      5 C         138.9468  139.9053  168.3795 C.ar    1  UNL1        0.3059
      6 N         139.0767  140.6441  169.6784 N.ar    1  UNL1       -0.1275
      7 O         137.9586  138.8837  167.9003 O.3     1  UNL1       -0.4450
      8 C         138.0838  138.3085  166.5207 C.3     1  UNL1        0.2399
      9 C         139.1972  138.7550  165.6201 C.3     1  UNL1        0.1818
     10 C         140.1854  139.7767  166.0993 C.3     1  UNL1        0.1440
     11 O         141.3712  143.7924  170.2857 O.2     1  UNL1        0.0432
     12 N         140.7687  142.4691  170.6540 N.pl3   1  UNL1        0.1030
     13 O         140.6645  142.0676  172.0955 O.co2   1  UNL1       -0.5746
     14 C         138.5029  138.7415  163.1166 C.3     1  UNL1        0.1687
     15 C         138.5105  140.2171  162.8473 C.ar    1  UNL1        0.0075
     16 C         137.4572  141.0957  163.4543 C.ar    1  UNL1        0.0013
     17 C         137.4649  142.5713  163.1850 C.ar    1  UNL1        0.0369
     18 C         138.5260  143.1683  162.3088 C.ar    1  UNL1        0.1468
     19 C         139.5793  142.2897  161.7019 C.ar    1  UNL1        0.0369
     20 C         139.5716  140.8141  161.9711 C.ar    1  UNL1        0.0013
     21 O         138.5336  144.6440  162.0396 O.3     1  UNL1       -0.4045
     22 C         139.7332  145.4669  162.4053 C.3     1  UNL1        0.5753
     23 F         140.9327  146.2898  162.7711 F       1  UNL1       -0.1328
     24 F         139.7883  146.0079  161.0074 F       1  UNL1       -0.1328
     25 F         139.6780  144.9259  163.8033 F       1  UNL1       -0.1328
@<TRIPOS>UNITY_ATOM_ATTR
12 1
charge 1
13 1
charge -1
@<TRIPOS>BOND
     1    11    12    2
     2    12    13    1
     3    12     2    1
     4     2     3   ar
     5     3     4   ar
     6     4     5   ar
     7     5     6   ar
     8     5     7    1
     9     7     8    1
    10     8     9    1
    11     9     1    1
    12     1    14    1
    13    14    15    1
    14    15    16   ar
    15    16    17   ar
    16    17    18   ar
    17    18    21    1
    18    21    22    1
    19    22    23    1
    20    22    24    1
    21    22    25    1
    22    18    19   ar
    23    19    20   ar
    24     9    10    1
    25     6     2   ar
    26    20    15   ar
    27    10     4    1
@<TRIPOS>MOLECULE
*****
 25 27 0 0 0
SMALL
GASTEIGER

@<TRIPOS>ATOM
      1 O         138.2996  138.9382  164.1546 O.3     1  UNL1       -0.3457
      2 C         140.2521  141.6106  169.6139 C.ar    1  UNL1        0.3976
      3 C         140.4527  141.7574  168.1346 C.ar    1  UNL1        0.1780
      4 N         139.6176  140.7176  167.4481 N.ar    1  UNL1       -0.2724
      5 C         138.9009  139.9280  168.5030 C.ar    1  UNL1        0.3059
      6 N         139.2931  140.4799  169.8415 N.ar    1  UNL1       -0.1275
      7 O         137.9838  138.8086  168.1086 O.3     1  UNL1       -0.4450
      8 C         137.7834  138.4787  166.6591 C.3     1  UNL1        0.2399
      9 C         138.5001  139.2682  165.6041 C.3     1  UNL1        0.1818
     10 C         139.4172  140.3877  165.9986 C.3     1  UNL1        0.1440
     11 O         140.6446  142.1453  172.1258 O.2     1  UNL1        0.0432
     12 N         140.8974  142.4474  170.6785 N.pl3   1  UNL1        0.1030
     13 O         141.7953  143.5863  170.2958 O.co2   1  UNL1       -0.5746
     14 C         139.3210  138.1180  163.4240 C.3     1  UNL1        0.1687
     15 C         140.6800  138.6880  163.1440 C.ar    1  UNL1        0.0075
     16 C         140.8106  139.9905  162.4116 C.ar    1  UNL1        0.0013
     17 C         142.1695  140.5605  162.1316 C.ar    1  UNL1        0.0369
     18 C         143.3978  139.8280  162.5841 C.ar    1  UNL1        0.1468
     19 C         143.2672  138.5255  163.3165 C.ar    1  UNL1        0.0369
     20 C         141.9083  137.9555  163.5964 C.ar    1  UNL1        0.0013
     21 O         144.7568  140.3980  162.3041 O.3     1  UNL1       -0.4045
     22 C         145.3655  141.3869  163.2536 C.3     1  UNL1        0.5753
     23 F         145.9742  142.3757  164.2031 F       1  UNL1       -0.1328
     24 F         144.9990  142.5053  162.3237 F       1  UNL1       -0.1328
     25 F         145.7319  140.2684  164.1835 F       1  UNL1       -0.1328
@<TRIPOS>UNITY_ATOM_ATTR
12 1
charge 1
13 1
charge -1
@<TRIPOS>BOND
     1    11    12    2
     2    12    13    1
     3    12     2    1
     4     2     3   ar
     5     3     4   ar
     6     4     5   ar
     7     5     6   ar
     8     5     7    1
     9     7     8    1
    10     8     9    1
    11     9     1    1
    12     1    14    1
    13    14    15    1
    14    15    16   ar
    15    16    17   ar
    16    17    18   ar
    17    18    21    1
    18    21    22    1
    19    22    23    1
    20    22    24    1
    21    22    25    1
    22    18    19   ar
    23    19    20   ar
    24     9    10    1
    25     6     2   ar
    26    20    15   ar
    27    10     4    1
@<TRIPOS>MOLECULE
*****
 25 27 0 0 0
SMALL
GASTEIGER

@<TRIPOS>ATOM
      1 O         139.4215  137.8131  162.3270 O.3     1  UNL1       -0.3457
      2 C         139.9228  144.0627  161.1235 C.ar    1  UNL1        0.3976
      3 C         140.7987  142.8536  161.2683 C.ar    1  UNL1        0.1780
      4 N         139.9181  141.6764  161.5662 N.ar    1  UNL1       -0.2724
      5 C         138.4981  142.1578  161.6054 C.ar    1  UNL1        0.3059
      6 N         138.5010  143.6327  161.3318 N.ar    1  UNL1       -0.1275
      7 O         137.3858  141.1911  161.8852 O.3     1  UNL1       -0.4450
      8 C         137.6936  139.7429  162.1257 C.3     1  UNL1        0.2399
      9 C         139.1137  139.2614  162.0865 C.3     1  UNL1        0.1818
     10 C         140.2260  140.2282  161.8067 C.3     1  UNL1        0.1440
     11 O         139.8705  146.6101  161.6313 O.2     1  UNL1        0.0432
     12 N         140.3872  145.4570  160.8231 N.pl3   1  UNL1        0.1030
     13 O         141.3684  145.6982  159.7145 O.co2   1  UNL1       -0.5746
     14 C         139.3035  137.2407  163.7084 C.3     1  UNL1        0.1687
     15 C         139.4869  138.1260  164.9054 C.ar    1  UNL1        0.0075
     16 C         138.3234  138.4223  165.8045 C.ar    1  UNL1        0.0013
     17 C         138.5070  139.3076  167.0014 C.ar    1  UNL1        0.0369
     18 C         139.8540  139.8965  167.2992 C.ar    1  UNL1        0.1468
     19 C         141.0175  139.6002  166.4001 C.ar    1  UNL1        0.0369
     20 C         140.8340  138.7149  165.2032 C.ar    1  UNL1        0.0013
     21 O         140.0375  140.7818  168.4961 O.3     1  UNL1       -0.4045
     22 C         139.8969  140.2142  169.8774 C.3     1  UNL1        0.5753
     23 F         139.7563  139.6466  171.2587 F       1  UNL1       -0.1328
     24 F         141.1371  139.3970  169.6678 F       1  UNL1       -0.1328
     25 F         138.6566  141.0314  170.0870 F       1  UNL1       -0.1328
@<TRIPOS>UNITY_ATOM_ATTR
12 1
charge 1
13 1
charge -1
@<TRIPOS>BOND
     1    11    12    2
     2    12    13    1
     3    12     2    1
     4     2     3   ar
     5     3     4   ar
     6     4     5   ar
     7     5     6   ar
     8     5     7    1
     9     7     8    1
    10     8     9    1
    11     9     1    1
    12     1    14    1
    13    14    15    1
    14    15    16   ar
    15    16    17   ar
    16    17    18   ar
    17    18    21    1
    18    21    22    1
    19    22    23    1
    20    22    24    1
    21    22    25    1
    22    18    19   ar
    23    19    20   ar
    24     9    10    1
    25     6     2   ar
    26    20    15   ar
    27    10     4    1
@<TRIPOS>MOLECULE
*****
 25 27 0 0 0
SMALL
GASTEIGER

@<TRIPOS>ATOM
      1 O         138.8326  138.1677  164.6534 O.3     1  UNL1       -0.3457
      2 C         141.2534  141.4537  169.5625 C.ar    1  UNL1        0.3976
      3 C         139.9208  141.0524  169.0029 C.ar    1  UNL1        0.1780
      4 N         140.1631  140.2439  167.7629 N.ar    1  UNL1       -0.2724
      5 C         141.6455  140.1456  167.5561 C.ar    1  UNL1        0.3059
      6 N         142.3193  140.8932  168.6683 N.ar    1  UNL1       -0.1275
      7 O         142.1903  139.3879  166.3817 O.3     1  UNL1       -0.4450
      8 C         141.2527  138.7287  165.4142 C.3     1  UNL1        0.2399
      9 C         139.7702  138.8270  165.6210 C.3     1  UNL1        0.1818
     10 C         139.2255  139.5847  166.7954 C.3     1  UNL1        0.1440
     11 O         140.6030  142.0751  171.9999 O.2     1  UNL1        0.0432
     12 N         141.4802  142.2717  170.7992 N.pl3   1  UNL1        0.1030
     13 O         142.5842  143.2865  170.8351 O.co2   1  UNL1       -0.5746
     14 C         138.7659  138.6422  163.2320 C.3     1  UNL1        0.1687
     15 C         138.6859  140.1103  162.9344 C.ar    1  UNL1        0.0075
     16 C         139.7840  140.7800  162.1627 C.ar    1  UNL1        0.0013
     17 C         139.7039  142.2480  161.8650 C.ar    1  UNL1        0.0369
     18 C         138.5257  143.0462  162.3391 C.ar    1  UNL1        0.1468
     19 C         137.4276  142.3764  163.1108 C.ar    1  UNL1        0.0369
     20 C         137.5077  140.9085  163.4084 C.ar    1  UNL1        0.0013
     21 O         138.4456  144.5142  162.0414 O.3     1  UNL1       -0.4045
     22 C         139.6139  145.4054  162.3429 C.3     1  UNL1        0.5753
     23 F         140.7821  146.2966  162.6443 F       1  UNL1       -0.1328
     24 F         139.8120  145.6423  160.8750 F       1  UNL1       -0.1328
     25 F         139.4157  145.1686  163.8107 F       1  UNL1       -0.1328
@<TRIPOS>UNITY_ATOM_ATTR
12 1
charge 1
13 1
charge -1
@<TRIPOS>BOND
     1    11    12    2
     2    12    13    1
     3    12     2    1
     4     2     3   ar
     5     3     4   ar
     6     4     5   ar
     7     5     6   ar
     8     5     7    1
     9     7     8    1
    10     8     9    1
    11     9     1    1
    12     1    14    1
    13    14    15    1
    14    15    16   ar
    15    16    17   ar
    16    17    18   ar
    17    18    21    1
    18    21    22    1
    19    22    23    1
    20    22    24    1
    21    22    25    1
    22    18    19   ar
    23    19    20   ar
    24     9    10    1
    25     6     2   ar
    26    20    15   ar
    27    10     4    1
@<TRIPOS>MOLECULE
*****
 25 27 0 0 0
SMALL
GASTEIGER

@<TRIPOS>ATOM
      1 O         144.3529  139.0236  164.5869 O.3     1  UNL1       -0.3457
      2 C         139.6910  140.2007  168.7867 C.ar    1  UNL1        0.3976
      3 C         141.1874  140.2519  168.6973 C.ar    1  UNL1        0.1780
      4 N         141.5852  139.8047  167.3218 N.ar    1  UNL1       -0.2724
      5 C         140.3346  139.4772  166.5611 C.ar    1  UNL1        0.3059
      6 N         139.1639  139.7220  167.4664 N.ar    1  UNL1       -0.1275
      7 O         140.4234  138.9985  165.1424 O.3     1  UNL1       -0.4450
      8 C         141.7628  138.8473  164.4843 C.3     1  UNL1        0.2399
      9 C         143.0134  139.1748  165.2450 C.3     1  UNL1        0.1818
     10 C         142.9247  139.6535  166.6638 C.3     1  UNL1        0.1440
     11 O         137.8356  139.6067  170.5056 O.2     1  UNL1        0.0432
     12 N         138.8664  140.5644  169.9857 N.pl3   1  UNL1        0.1030
     13 O         139.0726  141.8858  170.6649 O.co2   1  UNL1       -0.5746
     14 C         145.1183  140.2394  164.1558 C.3     1  UNL1        0.1687
     15 C         144.3922  141.5206  163.8703 C.ar    1  UNL1        0.0075
     16 C         143.5615  141.6511  162.6282 C.ar    1  UNL1        0.0013
     17 C         142.8355  142.9322  162.3428 C.ar    1  UNL1        0.0369
     18 C         142.9401  144.0828  163.2994 C.ar    1  UNL1        0.1468
     19 C         143.7708  143.9523  164.5415 C.ar    1  UNL1        0.0369
     20 C         144.4968  142.6712  164.8270 C.ar    1  UNL1        0.0013
     21 O         142.2140  145.3640  163.0139 O.3     1  UNL1       -0.4045
     22 C         140.7158  145.3770  162.9422 C.3     1  UNL1        0.5753
     23 F         139.2176  145.3901  162.8705 F       1  UNL1       -0.1328
     24 F         140.6433  144.9500  164.3783 F       1  UNL1       -0.1328
     25 F         140.7883  145.8041  161.5061 F       1  UNL1       -0.1328
@<TRIPOS>UNITY_ATOM_ATTR
12 1
charge 1
13 1
charge -1
@<TRIPOS>BOND
     1    11    12    2
     2    12    13    1
     3    12     2    1
     4     2     3   ar
     5     3     4   ar
     6     4     5   ar
     7     5     6   ar
     8     5     7    1
     9     7     8    1
    10     8     9    1
    11     9     1    1
    12     1    14    1
    13    14    15    1
    14    15    16   ar
    15    16    17   ar
    16    17    18   ar
    17    18    21    1
    18    21    22    1
    19    22    23    1
    20    22    24    1
    21    22    25    1
    22    18    19   ar
    23    19    20   ar
    24     9    10    1
    25     6     2   ar
    26    20    15   ar
    27    10     4    1
@<TRIPOS>MOLECULE
*****
 25 27 0 0 0
SMALL
GASTEIGER

@<TRIPOS>ATOM
      1 O         138.5800  145.2585  162.1053 O.3     1  UNL1       -0.3457
      2 C         138.3329  139.6078  165.0659 C.ar    1  UNL1        0.3976
      3 C         138.4794  141.0640  165.3946 C.ar    1  UNL1        0.1780
      4 N         138.4462  141.8352  164.1084 N.ar    1  UNL1       -0.2724
      5 C         138.2792  140.8556  162.9848 C.ar    1  UNL1        0.3059
      6 N         138.2092  139.4790  163.5766 N.ar    1  UNL1       -0.1275
      7 O         138.2124  141.3436  161.5680 O.3     1  UNL1       -0.4450
      8 C         138.3127  142.8113  161.2749 C.3     1  UNL1        0.2399
      9 C         138.4797  143.7909  162.3985 C.3     1  UNL1        0.1818
     10 C         138.5465  143.3028  163.8153 C.3     1  UNL1        0.1440
     11 O         138.5743  137.0752  165.5926 O.2     1  UNL1        0.0432
     12 N         138.3136  138.4787  166.0532 N.pl3   1  UNL1        0.1030
     13 O         138.0335  138.7531  167.5010 O.co2   1  UNL1       -0.5746
     14 C         139.9213  145.9296  162.0860 C.3     1  UNL1        0.1687
     15 C         141.1727  145.1073  162.1759 C.ar    1  UNL1        0.0075
     16 C         141.6962  144.4028  160.9596 C.ar    1  UNL1        0.0013
     17 C         142.9475  143.5806  161.0496 C.ar    1  UNL1        0.0369
     18 C         143.6753  143.4629  162.3559 C.ar    1  UNL1        0.1468
     19 C         143.1518  144.1675  163.5722 C.ar    1  UNL1        0.0369
     20 C         141.9005  144.9897  163.4822 C.ar    1  UNL1        0.0013
     21 O         144.9267  142.6406  162.4458 O.3     1  UNL1       -0.4045
     22 C         144.9678  141.4321  163.3333 C.3     1  UNL1        0.5753
     23 F         145.0089  140.2236  164.2208 F       1  UNL1       -0.1328
     24 F         145.9668  142.1162  164.2187 F       1  UNL1       -0.1328
     25 F         143.9688  140.7480  162.4480 F       1  UNL1       -0.1328
@<TRIPOS>UNITY_ATOM_ATTR
12 1
charge 1
13 1
charge -1
@<TRIPOS>BOND
     1    11    12    2
     2    12    13    1
     3    12     2    1
     4     2     3   ar
     5     3     4   ar
     6     4     5   ar
     7     5     6   ar
     8     5     7    1
     9     7     8    1
    10     8     9    1
    11     9     1    1
    12     1    14    1
    13    14    15    1
    14    15    16   ar
    15    16    17   ar
    16    17    18   ar
    17    18    21    1
    18    21    22    1
    19    22    23    1
    20    22    24    1
    21    22    25    1
    22    18    19   ar
    23    19    20   ar
    24     9    10    1
    25     6     2   ar
    26    20    15   ar
    27    10     4    1
@<TRIPOS>MOLECULE
*****
 25 27 0 0 0
SMALL
GASTEIGER

@<TRIPOS>ATOM
      1 O         145.6538  142.2728  164.0002 O.3     1  UNL1       -0.3457
      2 C         143.0196  138.5894  159.5001 C.ar    1  UNL1        0.3976
      3 C         143.5374  139.9864  159.6739 C.ar    1  UNL1        0.1780
      4 N         144.0270  140.1273  161.0847 N.ar    1  UNL1       -0.2724
      5 C         143.8118  138.8173  161.7830 C.ar    1  UNL1        0.3059
      6 N         143.1892  137.8669  160.8036 N.ar    1  UNL1       -0.1275
      7 O         144.2106  138.6591  163.2203 O.3     1  UNL1       -0.4450
      8 C         144.8246  139.8109  163.9593 C.3     1  UNL1        0.2399
      9 C         145.0398  141.1209  163.2611 C.3     1  UNL1        0.1818
     10 C         144.6410  141.2791  161.8238 C.3     1  UNL1        0.1440
     11 O         140.9537  138.0694  158.0130 O.2     1  UNL1        0.0432
     12 N         142.4349  138.0157  158.2436 N.pl3   1  UNL1        0.1030
     13 O         143.3313  137.3884  157.2175 O.co2   1  UNL1       -0.5746
     14 C         144.8735  142.9801  165.0683 C.3     1  UNL1        0.1687
     15 C         143.5045  143.5144  164.7677 C.ar    1  UNL1        0.0075
     16 C         142.2896  142.7787  165.2500 C.ar    1  UNL1        0.0013
     17 C         140.9207  143.3131  164.9494 C.ar    1  UNL1        0.0369
     18 C         140.7666  144.5832  164.1663 C.ar    1  UNL1        0.1468
     19 C         141.9815  145.3189  163.6839 C.ar    1  UNL1        0.0369
     20 C         143.3504  144.7845  163.9846 C.ar    1  UNL1        0.0013
     21 O         139.3976  145.1175  163.8657 O.3     1  UNL1       -0.4045
     22 C         138.3775  144.2380  163.2055 C.3     1  UNL1        0.5753
     23 F         137.3575  143.3585  162.5452 F       1  UNL1       -0.1328
     24 F         137.4972  144.3514  164.4146 F       1  UNL1       -0.1328
     25 F         139.2579  144.1247  161.9963 F       1  UNL1       -0.1328
@<TRIPOS>UNITY_ATOM_ATTR
12 1
charge 1
13 1
charge -1
@<TRIPOS>BOND
     1    11    12    2
     2    12    13    1
     3    12     2    1
     4     2     3   ar
     5     3     4   ar
     6     4     5   ar
     7     5     6   ar
     8     5     7    1
     9     7     8    1
    10     8     9    1
    11     9     1    1
    12     1    14    1
    13    14    15    1
    14    15    16   ar
    15    16    17   ar
    16    17    18   ar
    17    18    21    1
    18    21    22    1
    19    22    23    1
    20    22    24    1
    21    22    25    1
    22    18    19   ar
    23    19    20   ar
    24     9    10    1
    25     6     2   ar
    26    20    15   ar
    27    10     4    1
@<TRIPOS>MOLECULE
*****
 25 27 0 0 0
SMALL
GASTEIGER

@<TRIPOS>ATOM
      1 O         145.4965  140.7149  163.9838 O.3     1  UNL1       -0.3457
      2 C         139.8264  139.2535  166.5276 C.ar    1  UNL1        0.3976
      3 C         140.9927  140.1616  166.7826 C.ar    1  UNL1        0.1780
      4 N         142.0048  139.9316  165.6997 N.ar    1  UNL1       -0.2724
      5 C         141.4640  138.8812  164.7754 C.ar    1  UNL1        0.3059
      6 N         140.1177  138.4622  165.2870 N.ar    1  UNL1       -0.1275
      7 O         142.2674  138.4421  163.5872 O.3     1  UNL1       -0.4450
      8 C         143.6115  139.0533  163.3234 C.3     1  UNL1        0.2399
      9 C         144.1523  140.1036  164.2477 C.3     1  UNL1        0.1818
     10 C         143.3489  140.5428  165.4358 C.3     1  UNL1        0.1440
     11 O         138.6136  139.5928  168.8000 O.2     1  UNL1        0.0432
     12 N         138.5865  139.1542  167.3659 N.pl3   1  UNL1        0.1030
     13 O         137.3194  138.6162  166.7700 O.co2   1  UNL1       -0.5746
     14 C         145.6091  141.9336  163.1167 C.3     1  UNL1        0.1687
     15 C         144.4604  142.8934  163.0192 C.ar    1  UNL1        0.0075
     16 C         143.5654  142.8722  161.8157 C.ar    1  UNL1        0.0013
     17 C         142.4168  143.8320  161.7182 C.ar    1  UNL1        0.0369
     18 C         142.1633  144.8130  162.8243 C.ar    1  UNL1        0.1468
     19 C         143.0583  144.8342  164.0278 C.ar    1  UNL1        0.0369
     20 C         144.2068  143.8744  164.1252 C.ar    1  UNL1        0.0013
     21 O         141.0146  145.7728  162.7268 O.3     1  UNL1       -0.4045
     22 C         139.6048  145.2630  162.7779 C.3     1  UNL1        0.5753
     23 F         138.1951  144.7532  162.8291 F       1  UNL1       -0.1328
     24 F         139.6984  145.1542  164.2710 F       1  UNL1       -0.1328
     25 F         139.5113  145.3718  161.2848 F       1  UNL1       -0.1328
@<TRIPOS>UNITY_ATOM_ATTR
12 1
charge 1
13 1
charge -1
@<TRIPOS>BOND
     1    11    12    2
     2    12    13    1
     3    12     2    1
     4     2     3   ar
     5     3     4   ar
     6     4     5   ar
     7     5     6   ar
     8     5     7    1
     9     7     8    1
    10     8     9    1
    11     9     1    1
    12     1    14    1
    13    14    15    1
    14    15    16   ar
    15    16    17   ar
    16    17    18   ar
    17    18    21    1
    18    21    22    1
    19    22    23    1
    20    22    24    1
    21    22    25    1
    22    18    19   ar
    23    19    20   ar
    24     9    10    1
    25     6     2   ar
    26    20    15   ar
    27    10     4    1
@<TRIPOS>MOLECULE
*****
 25 27 0 0 0
SMALL
GASTEIGER

@<TRIPOS>ATOM
      1 O         145.2303  140.8835  164.3396 O.3     1  UNL1       -0.3457
      2 C         140.6431  144.7286  162.1194 C.ar    1  UNL1        0.3976
      3 C         140.9269  143.8561  163.3060 C.ar    1  UNL1        0.1780
      4 N         142.2788  143.2357  163.1125 N.ar    1  UNL1       -0.2724
      5 C         142.8306  143.7248  161.8062 C.ar    1  UNL1        0.3059
      6 N         141.8196  144.6475  161.1924 N.ar    1  UNL1       -0.1275
      7 O         144.1822  143.2668  161.3444 O.3     1  UNL1       -0.4450
      8 C         144.9821  142.3197  162.1889 C.3     1  UNL1        0.2399
      9 C         144.4303  141.8306  163.4951 C.3     1  UNL1        0.1818
     10 C         143.0787  142.2886  163.9569 C.3     1  UNL1        0.1440
     11 O         139.4759  146.8376  161.1499 O.2     1  UNL1        0.0432
     12 N         139.4009  145.5399  161.8984 N.pl3   1  UNL1        0.1030
     13 O         138.0837  145.0534  162.4260 O.co2   1  UNL1       -0.5746
     14 C         144.8147  139.4468  164.4542 C.3     1  UNL1        0.1687
     15 C         143.3591  139.0897  164.5156 C.ar    1  UNL1        0.0075
     16 C         142.6715  138.5337  163.3040 C.ar    1  UNL1        0.0013
     17 C         141.2159  138.1766  163.3655 C.ar    1  UNL1        0.0369
     18 C         140.4480  138.3756  164.6386 C.ar    1  UNL1        0.1468
     19 C         141.1356  138.9316  165.8502 C.ar    1  UNL1        0.0369
     20 C         142.5911  139.2887  165.7887 C.ar    1  UNL1        0.0013
     21 O         138.9923  138.0185  164.7000 O.3     1  UNL1       -0.4045
     22 C         138.1915  138.3434  165.9259 C.3     1  UNL1        0.5753
     23 F         137.3906  138.6684  167.1519 F       1  UNL1       -0.1328
     24 F         138.1067  139.7764  165.4908 F       1  UNL1       -0.1328
     25 F         138.2762  136.9105  166.3611 F       1  UNL1       -0.1328
@<TRIPOS>UNITY_ATOM_ATTR
12 1
charge 1
13 1
charge -1
@<TRIPOS>BOND
     1    11    12    2
     2    12    13    1
     3    12     2    1
     4     2     3   ar
     5     3     4   ar
     6     4     5   ar
     7     5     6   ar
     8     5     7    1
     9     7     8    1
    10     8     9    1
    11     9     1    1
    12     1    14    1
    13    14    15    1
    14    15    16   ar
    15    16    17   ar
    16    17    18   ar
    17    18    21    1
    18    21    22    1
    19    22    23    1
    20    22    24    1
    21    22    25    1
    22    18    19   ar
    23    19    20   ar
    24     9    10    1
    25     6     2   ar
    26    20    15   ar
    27    10     4    1
