@<TRIPOS>MOLECULE
*****
 45 48 0 0 0
SMALL
GASTEIGER

@<TRIPOS>ATOM
      1 C         144.1633  142.0134  164.0511 C.3     1  UNL1        0.0738
      2 C         142.5002  140.5678  167.9747 C.3     1  UNL1        0.0781
      3 C         142.8234  142.0204  167.7867 C.3     1  UNL1        0.0372
      4 C         143.3778  142.5023  166.4788 C.3     1  UNL1        0.0738
      5 N         143.6089  141.5315  165.3589 N.3     1  UNL1       -0.2725
      6 C         143.2857  140.0788  165.5469 C.3     1  UNL1        0.0738
      7 C         142.7313  139.5970  166.8548 C.3     1  UNL1        0.0372
      8 N         141.9458  140.0860  169.2825 N.am    1  UNL1       -0.2808
      9 C         140.4994  140.3090  169.6118 C.2     1  UNL1        0.2300
     10 O         139.9451  139.8272  170.9196 O.2     1  UNL1       -0.2745
     11 C         143.0126  137.8936  170.1798 C.3     1  UNL1        0.0233
     12 C         142.8377  139.3812  170.2611 C.3     1  UNL1        0.0934
     13 C         139.6075  141.0138  168.6332 C.3     1  UNL1        0.1116
     14 C         139.3562  140.4148  167.2811 C.ar    1  UNL1       -0.0130
     15 C         138.8252  139.0166  167.1672 C.ar    1  UNL1       -0.0025
     16 C         138.5739  138.4176  165.8152 C.ar    1  UNL1        0.0180
     17 C         138.8537  139.2168  164.5771 C.ar    1  UNL1        0.1057
     18 C         139.3847  140.6150  164.6909 C.ar    1  UNL1        0.0180
     19 C         139.6359  141.2140  166.0430 C.ar    1  UNL1       -0.0025
     20 S         138.6024  138.6178  163.2250 S.O2    1  UNL1        0.0104
     21 C         138.3511  138.0187  161.8730 C.3     1  UNL1        0.1816
     22 O         139.3745  137.3951  163.6232 O.2     1  UNL1       -0.1686
     23 O         137.8302  139.8405  162.8267 O.2     1  UNL1       -0.1686
     24 C         143.3993  143.0141  163.2357 C.3     1  UNL1        0.0378
     25 C         142.1097  142.6190  162.5795 C.3     1  UNL1        0.0815
     26 C         140.8242  143.2668  163.0012 C.ar    1  UNL1       -0.0077
     27 C         140.7799  144.1068  164.2432 C.ar    1  UNL1       -0.0030
     28 C         139.4945  144.7547  164.6649 C.ar    1  UNL1       -0.0003
     29 C         138.2533  144.5625  163.8448 C.ar    1  UNL1       -0.0000
     30 C         138.2976  143.7225  162.6029 C.ar    1  UNL1       -0.0003
     31 C         139.5831  143.0746  162.1810 C.ar    1  UNL1       -0.0030
     32 N         142.1055  141.5760  161.5014 N.3     1  UNL1       -0.2678
     33 C         141.8009  140.1472  161.8414 C.3     1  UNL1        0.0917
     34 C         141.7967  139.1042  160.7632 C.3     1  UNL1        0.1128
     35 N         142.0971  139.4901  159.3452 N.3     1  UNL1       -0.1563
     36 C         142.4016  140.9190  159.0053 C.3     1  UNL1        0.1128
     37 C         142.4058  141.9620  160.0833 C.3     1  UNL1        0.0917
     38 S         142.0929  138.4472  158.2671 S.O2    1  UNL1        0.0526
     39 O         143.1593  137.6869  158.9983 O.2     1  UNL1       -0.1570
     40 O         141.0264  139.2074  157.5359 O.2     1  UNL1       -0.1570
     41 C         142.0886  137.4043  157.1890 C.3     1  UNL1        0.2716
     42 C         143.3395  137.1269  156.4090 C.3     1  UNL1        0.4210
     43 F         144.5904  136.8494  155.6290 F       1  UNL1       -0.1680
     44 F         143.1622  135.6567  156.6476 F       1  UNL1       -0.1680
     45 F         143.5168  138.5971  156.1705 F       1  UNL1       -0.1680
@<TRIPOS>BOND
     1    11    12    1
     2    12     8    1
     3     8     9   am
     4     9    10    2
     5     9    13    1
     6    13    14    1
     7    14    15   ar
     8    15    16   ar
     9    16    17   ar
    10    17    20    1
    11    20    21    1
    12    20    22    2
    13    20    23    2
    14    17    18   ar
    15    18    19   ar
    16     8     2    1
    17     2     3    1
    18     3     4    1
    19     4     5    1
    20     5     1    1
    21     1    24    1
    22    25    24    1
    23    25    26    1
    24    26    27   ar
    25    27    28   ar
    26    28    29   ar
    27    29    30   ar
    28    30    31   ar
    29    25    32    1
    30    32    33    1
    31    33    34    1
    32    34    35    1
    33    35    38    1
    34    38    39    2
    35    38    40    2
    36    38    41    1
    37    41    42    1
    38    42    43    1
    39    42    44    1
    40    42    45    1
    41    35    36    1
    42    36    37    1
    43     5     6    1
    44     6     7    1
    45    19    14   ar
    46     7     2    1
    47    31    26   ar
    48    37    32    1
@<TRIPOS>MOLECULE
*****
 45 48 0 0 0
SMALL
GASTEIGER

@<TRIPOS>ATOM
      1 C         138.9312  137.5258  163.4858 C.3     1  UNL1        0.0738
      2 C         140.3839  139.7682  167.1068 C.3     1  UNL1        0.0781
      3 C         141.3614  139.3147  166.0634 C.3     1  UNL1        0.0372
      4 C         140.8772  138.5673  164.8564 C.3     1  UNL1        0.0738
      5 N         139.4154  138.2733  164.6928 N.3     1  UNL1       -0.2725
      6 C         138.4378  138.7267  165.7363 C.3     1  UNL1        0.0738
      7 C         138.9220  139.4741  166.9433 C.3     1  UNL1        0.0372
      8 N         140.8681  140.5156  168.3138 N.am    1  UNL1       -0.2808
      9 C         140.9666  142.0121  168.2797 C.2     1  UNL1        0.2300
     10 O         141.4508  142.7595  169.4867 O.2     1  UNL1       -0.2745
     11 C         142.5712  139.0526  169.6210 C.3     1  UNL1        0.0233
     12 C         141.2538  139.7667  169.5549 C.3     1  UNL1        0.0934
     13 C         140.5809  142.7609  167.0386 C.3     1  UNL1        0.1116
     14 C         141.4828  142.7416  165.8401 C.ar    1  UNL1       -0.0130
     15 C         142.9603  142.5517  166.0163 C.ar    1  UNL1       -0.0025
     16 C         143.8621  142.5324  164.8179 C.ar    1  UNL1        0.0180
     17 C         143.2865  142.7029  163.4433 C.ar    1  UNL1        0.1057
     18 C         141.8091  142.8928  163.2671 C.ar    1  UNL1        0.0180
     19 C         140.9072  142.9121  164.4655 C.ar    1  UNL1       -0.0025
     20 S         144.1884  142.6835  162.2448 S.O2    1  UNL1        0.0104
     21 C         145.0903  142.6641  161.0464 C.3     1  UNL1        0.1816
     22 O         144.7101  141.3396  162.6591 O.2     1  UNL1       -0.1686
     23 O         143.6668  144.0275  161.8305 O.2     1  UNL1       -0.1686
     24 C         138.1303  138.2361  162.4352 C.3     1  UNL1        0.0378
     25 C         138.7463  139.3584  161.6535 C.3     1  UNL1        0.0815
     26 C         138.4415  140.7813  162.0170 C.ar    1  UNL1       -0.0077
     27 C         138.9005  141.8978  161.1265 C.ar    1  UNL1       -0.0030
     28 C         138.5957  143.3207  161.4900 C.ar    1  UNL1       -0.0003
     29 C         137.8319  143.6274  162.7440 C.ar    1  UNL1       -0.0000
     30 C         137.3728  142.5110  163.6345 C.ar    1  UNL1       -0.0003
     31 C         137.6777  141.0880  163.2710 C.ar    1  UNL1       -0.0030
     32 N         139.6672  139.0576  160.5083 N.3     1  UNL1       -0.2678
     33 C         139.1466  139.0788  159.1017 C.3     1  UNL1        0.0917
     34 C         140.0675  138.7781  157.9565 C.3     1  UNL1        0.1128
     35 N         141.5090  138.4562  158.2179 N.3     1  UNL1       -0.1563
     36 C         142.0297  138.4350  159.6245 C.3     1  UNL1        0.1128
     37 C         141.1088  138.7357  160.7697 C.3     1  UNL1        0.0917
     38 S         142.4300  138.1554  157.0727 S.O2    1  UNL1        0.0526
     39 O         143.0998  137.0914  157.8907 O.2     1  UNL1       -0.1570
     40 O         141.7602  139.2194  156.2547 O.2     1  UNL1       -0.1570
     41 C         143.3509  137.8547  155.9275 C.3     1  UNL1        0.2716
     42 C         143.3486  136.4918  155.3012 C.3     1  UNL1        0.4210
     43 F         143.3462  135.1288  154.6749 F       1  UNL1       -0.1680
     44 F         141.8492  136.5117  155.2636 F       1  UNL1       -0.1680
     45 F         144.8479  136.4719  155.3388 F       1  UNL1       -0.1680
@<TRIPOS>BOND
     1    11    12    1
     2    12     8    1
     3     8     9   am
     4     9    10    2
     5     9    13    1
     6    13    14    1
     7    14    15   ar
     8    15    16   ar
     9    16    17   ar
    10    17    20    1
    11    20    21    1
    12    20    22    2
    13    20    23    2
    14    17    18   ar
    15    18    19   ar
    16     8     2    1
    17     2     3    1
    18     3     4    1
    19     4     5    1
    20     5     1    1
    21     1    24    1
    22    25    24    1
    23    25    26    1
    24    26    27   ar
    25    27    28   ar
    26    28    29   ar
    27    29    30   ar
    28    30    31   ar
    29    25    32    1
    30    32    33    1
    31    33    34    1
    32    34    35    1
    33    35    38    1
    34    38    39    2
    35    38    40    2
    36    38    41    1
    37    41    42    1
    38    42    43    1
    39    42    44    1
    40    42    45    1
    41    35    36    1
    42    36    37    1
    43     5     6    1
    44     6     7    1
    45    19    14   ar
    46     7     2    1
    47    31    26   ar
    48    37    32    1
@<TRIPOS>MOLECULE
*****
 45 48 0 0 0
SMALL
GASTEIGER

@<TRIPOS>ATOM
      1 C         145.3070  141.9061  162.9605 C.3     1  UNL1        0.0738
      2 C         142.9724  141.6077  166.7959 C.3     1  UNL1        0.0781
      3 C         142.9824  140.4580  165.8326 C.3     1  UNL1        0.0372
      4 C         143.7606  140.5574  164.5541 C.3     1  UNL1        0.0738
      5 N         144.5288  141.8066  164.2390 N.3     1  UNL1       -0.2725
      6 C         144.5188  142.9564  165.2023 C.3     1  UNL1        0.0738
      7 C         143.7406  142.8569  166.4808 C.3     1  UNL1        0.0372
      8 N         142.1942  141.5082  168.0744 N.am    1  UNL1       -0.2808
      9 C         140.8431  142.1510  168.1820 C.2     1  UNL1        0.2300
     10 O         140.0649  142.0515  169.4604 O.2     1  UNL1       -0.2745
     11 C         142.4325  139.3185  169.4521 C.3     1  UNL1        0.0233
     12 C         142.7670  140.7660  169.2453 C.3     1  UNL1        0.0934
     13 C         140.2703  142.8932  167.0111 C.3     1  UNL1        0.1116
     14 C         139.7091  142.1355  165.8445 C.ar    1  UNL1       -0.0130
     15 C         139.2087  140.7338  166.0312 C.ar    1  UNL1       -0.0025
     16 C         138.6475  139.9761  164.8646 C.ar    1  UNL1        0.0180
     17 C         138.5867  140.6202  163.5113 C.ar    1  UNL1        0.1057
     18 C         139.0871  142.0218  163.3245 C.ar    1  UNL1        0.0180
     19 C         139.6482  142.7795  164.4911 C.ar    1  UNL1       -0.0025
     20 S         138.0255  139.8624  162.3446 S.O2    1  UNL1        0.0104
     21 C         137.4643  139.1047  161.1781 C.3     1  UNL1        0.1816
     22 O         138.7064  138.6159  162.8267 O.2     1  UNL1       -0.1686
     23 O         137.3445  141.1089  161.8625 O.2     1  UNL1       -0.1686
     24 C         144.8842  142.8776  161.8988 C.3     1  UNL1        0.0378
     25 C         143.5404  142.7384  161.2470 C.3     1  UNL1        0.0815
     26 C         142.4530  143.7255  161.5521 C.ar    1  UNL1       -0.0077
     27 C         142.5151  144.5460  162.8063 C.ar    1  UNL1       -0.0030
     28 C         141.4277  145.5331  163.1115 C.ar    1  UNL1       -0.0003
     29 C         140.2782  145.6998  162.1624 C.ar    1  UNL1       -0.0000
     30 C         140.2160  144.8794  160.9082 C.ar    1  UNL1       -0.0003
     31 C         141.3035  143.8922  160.6030 C.ar    1  UNL1       -0.0030
     32 N         143.2840  141.6122  160.2901 N.3     1  UNL1       -0.2678
     33 C         142.4942  140.4165  160.7333 C.3     1  UNL1        0.0917
     34 C         142.2378  139.2902  159.7763 C.3     1  UNL1        0.1128
     35 N         142.7712  139.3596  158.3761 N.3     1  UNL1       -0.1563
     36 C         143.5611  140.5553  157.9329 C.3     1  UNL1        0.1128
     37 C         143.8175  141.6816  158.8898 C.3     1  UNL1        0.0917
     38 S         142.5149  138.2333  157.4191 S.O2    1  UNL1        0.0526
     39 O         141.1585  138.0269  158.0253 O.2     1  UNL1       -0.1570
     40 O         143.8713  138.4397  156.8129 O.2     1  UNL1       -0.1570
     41 C         142.2585  137.1071  156.4622 C.3     1  UNL1        0.2716
     42 C         143.2143  135.9534  156.3884 C.3     1  UNL1        0.4210
     43 F         144.1701  134.7996  156.3146 F       1  UNL1       -0.1680
     44 F         143.2947  136.1152  154.8994 F       1  UNL1       -0.1680
     45 F         143.1339  135.7916  157.8775 F       1  UNL1       -0.1680
@<TRIPOS>BOND
     1    11    12    1
     2    12     8    1
     3     8     9   am
     4     9    10    2
     5     9    13    1
     6    13    14    1
     7    14    15   ar
     8    15    16   ar
     9    16    17   ar
    10    17    20    1
    11    20    21    1
    12    20    22    2
    13    20    23    2
    14    17    18   ar
    15    18    19   ar
    16     8     2    1
    17     2     3    1
    18     3     4    1
    19     4     5    1
    20     5     1    1
    21     1    24    1
    22    25    24    1
    23    25    26    1
    24    26    27   ar
    25    27    28   ar
    26    28    29   ar
    27    29    30   ar
    28    30    31   ar
    29    25    32    1
    30    32    33    1
    31    33    34    1
    32    34    35    1
    33    35    38    1
    34    38    39    2
    35    38    40    2
    36    38    41    1
    37    41    42    1
    38    42    43    1
    39    42    44    1
    40    42    45    1
    41    35    36    1
    42    36    37    1
    43     5     6    1
    44     6     7    1
    45    19    14   ar
    46     7     2    1
    47    31    26   ar
    48    37    32    1
@<TRIPOS>MOLECULE
*****
 45 48 0 0 0
SMALL
GASTEIGER

@<TRIPOS>ATOM
      1 C         138.0247  143.9955  163.7513 C.3     1  UNL1        0.0738
      2 C         140.0626  141.4252  166.8321 C.3     1  UNL1        0.0781
      3 C         140.2730  142.9104  166.8364 C.3     1  UNL1        0.0372
      4 C         139.5937  143.7671  165.8095 C.3     1  UNL1        0.0738
      5 N         138.7040  143.1387  164.7782 N.3     1  UNL1       -0.2725
      6 C         138.4936  141.6535  164.7739 C.3     1  UNL1        0.0738
      7 C         139.1729  140.7968  165.8008 C.3     1  UNL1        0.0372
      8 N         140.7419  140.5685  167.8590 N.am    1  UNL1       -0.2808
      9 C         142.2079  140.2742  167.7392 C.2     1  UNL1        0.2300
     10 O         142.8872  139.4174  168.7661 O.2     1  UNL1       -0.2745
     11 C         139.2668  140.9289  169.9671 C.3     1  UNL1        0.0233
     12 C         139.9552  140.0061  169.0056 C.3     1  UNL1        0.0934
     13 C         142.9945  140.8366  166.5926 C.3     1  UNL1        0.1116
     14 C         142.9915  140.1365  165.2659 C.ar    1  UNL1       -0.0130
     15 C         142.1914  138.8811  165.0823 C.ar    1  UNL1       -0.0025
     16 C         142.1884  138.1811  163.7557 C.ar    1  UNL1        0.0180
     17 C         142.9854  138.7364  162.6128 C.ar    1  UNL1        0.1057
     18 C         143.7855  139.9918  162.7964 C.ar    1  UNL1        0.0180
     19 C         143.7886  140.6918  164.1230 C.ar    1  UNL1       -0.0025
     20 S         142.9824  138.0363  161.2861 S.O2    1  UNL1        0.0104
     21 C         142.9793  137.3362  159.9595 C.3     1  UNL1        0.1816
     22 O         141.6900  137.3643  161.6438 O.2     1  UNL1       -0.1686
     23 O         144.2748  138.7083  160.9284 O.2     1  UNL1       -0.1686
     24 C         138.8431  144.8154  162.7985 C.3     1  UNL1        0.0378
     25 C         139.8438  144.1476  161.9026 C.3     1  UNL1        0.0815
     26 C         141.3064  144.2188  162.2275 C.ar    1  UNL1       -0.0077
     27 C         142.2936  143.4301  161.4190 C.ar    1  UNL1       -0.0030
     28 C         143.7562  143.5013  161.7438 C.ar    1  UNL1       -0.0003
     29 C         144.2318  144.3611  162.8772 C.ar    1  UNL1       -0.0000
     30 C         143.2447  145.1498  163.6857 C.ar    1  UNL1       -0.0003
     31 C         141.7820  145.0786  163.3608 C.ar    1  UNL1       -0.0030
     32 N         139.3818  143.4086  160.6818 N.3     1  UNL1       -0.2678
     33 C         138.6811  142.0899  160.8236 C.3     1  UNL1        0.0917
     34 C         138.2191  141.3509  159.6027 C.3     1  UNL1        0.1128
     35 N         138.4579  141.9306  158.2401 N.3     1  UNL1       -0.1563
     36 C         139.1586  143.2493  158.0982 C.3     1  UNL1        0.1128
     37 C         139.6206  143.9883  159.3190 C.3     1  UNL1        0.0917
     38 S         137.9959  141.1916  157.0192 S.O2    1  UNL1        0.0526
     39 O         138.0956  139.8948  157.7663 O.2     1  UNL1       -0.1570
     40 O         137.8962  142.4884  156.2720 O.2     1  UNL1       -0.1570
     41 C         137.5339  140.4527  155.7983 C.3     1  UNL1        0.2716
     42 C         136.2041  140.7760  155.1844 C.3     1  UNL1        0.4210
     43 F         134.8742  141.0994  154.5705 F       1  UNL1       -0.1680
     44 F         135.5540  140.6593  156.5311 F       1  UNL1       -0.1680
     45 F         136.8542  140.8927  153.8377 F       1  UNL1       -0.1680
@<TRIPOS>BOND
     1    11    12    1
     2    12     8    1
     3     8     9   am
     4     9    10    2
     5     9    13    1
     6    13    14    1
     7    14    15   ar
     8    15    16   ar
     9    16    17   ar
    10    17    20    1
    11    20    21    1
    12    20    22    2
    13    20    23    2
    14    17    18   ar
    15    18    19   ar
    16     8     2    1
    17     2     3    1
    18     3     4    1
    19     4     5    1
    20     5     1    1
    21     1    24    1
    22    25    24    1
    23    25    26    1
    24    26    27   ar
    25    27    28   ar
    26    28    29   ar
    27    29    30   ar
    28    30    31   ar
    29    25    32    1
    30    32    33    1
    31    33    34    1
    32    34    35    1
    33    35    38    1
    34    38    39    2
    35    38    40    2
    36    38    41    1
    37    41    42    1
    38    42    43    1
    39    42    44    1
    40    42    45    1
    41    35    36    1
    42    36    37    1
    43     5     6    1
    44     6     7    1
    45    19    14   ar
    46     7     2    1
    47    31    26   ar
    48    37    32    1
@<TRIPOS>MOLECULE
*****
 45 48 0 0 0
SMALL
GASTEIGER

@<TRIPOS>ATOM
      1 C         145.1720  140.1712  164.2802 C.3     1  UNL1        0.0738
      2 C         141.1570  139.7294  166.2639 C.3     1  UNL1        0.0781
      3 C         141.8023  138.5464  165.6051 C.3     1  UNL1        0.0372
      4 C         143.1406  138.6937  164.9439 C.3     1  UNL1        0.0738
      5 N         143.8337  140.0239  164.9414 N.3     1  UNL1       -0.2725
      6 C         143.1884  141.2070  165.6003 C.3     1  UNL1        0.0738
      7 C         141.8501  141.0597  166.2615 C.3     1  UNL1        0.0372
      8 N         139.8187  139.5821  166.9252 N.am    1  UNL1       -0.2808
      9 C         138.7002  138.8862  166.2077 C.2     1  UNL1        0.2300
     10 O         137.3619  138.7389  166.8690 O.2     1  UNL1       -0.2745
     11 C         140.6024  139.8634  169.3862 C.3     1  UNL1        0.0233
     12 C         139.5989  140.1307  168.3038 C.3     1  UNL1        0.0934
     13 C         138.9200  138.3375  164.8291 C.3     1  UNL1        0.1116
     14 C         138.9188  139.2596  163.6459 C.ar    1  UNL1       -0.0130
     15 C         138.1055  140.5195  163.6778 C.ar    1  UNL1       -0.0025
     16 C         138.1043  141.4415  162.4946 C.ar    1  UNL1        0.0180
     17 C         138.9164  141.1036  161.2796 C.ar    1  UNL1        0.1057
     18 C         139.7297  139.8436  161.2477 C.ar    1  UNL1        0.0180
     19 C         139.7309  138.9217  162.4309 C.ar    1  UNL1       -0.0025
     20 S         138.9151  142.0256  160.0964 S.O2    1  UNL1        0.0104
     21 C         138.9139  142.9476  158.9133 C.3     1  UNL1        0.1816
     22 O         139.8493  141.1004  159.3745 O.2     1  UNL1       -0.1686
     23 O         137.9809  142.9509  160.8184 O.2     1  UNL1       -0.1686
     24 C         145.3505  141.1507  163.1583 C.3     1  UNL1        0.0378
     25 C         144.1795  141.5318  162.3019 C.3     1  UNL1        0.0815
     26 C         143.3380  142.7186  162.6669 C.ar    1  UNL1       -0.0077
     27 C         143.9882  143.9714  163.1748 C.ar    1  UNL1       -0.0030
     28 C         143.1467  145.1582  163.5398 C.ar    1  UNL1       -0.0003
     29 C         141.6550  145.0923  163.3970 C.ar    1  UNL1       -0.0000
     30 C         141.0047  143.8396  162.8892 C.ar    1  UNL1       -0.0003
     31 C         141.8462  142.6527  162.5242 C.ar    1  UNL1       -0.0030
     32 N         143.8500  140.7260  161.0804 N.3     1  UNL1       -0.2678
     33 C         143.9580  141.3482  159.7198 C.3     1  UNL1        0.0917
     34 C         143.6285  140.5424  158.4982 C.3     1  UNL1        0.1128
     35 N         143.1909  139.1144  158.6373 N.3     1  UNL1       -0.1563
     36 C         143.0829  138.4922  159.9979 C.3     1  UNL1        0.1128
     37 C         143.4124  139.2980  161.2194 C.3     1  UNL1        0.0917
     38 S         142.8614  138.3086  157.4158 S.O2    1  UNL1        0.0526
     39 O         141.7088  137.6800  158.1413 O.2     1  UNL1       -0.1570
     40 O         144.0140  138.9372  156.6902 O.2     1  UNL1       -0.1570
     41 C         142.5319  137.5028  156.1943 C.3     1  UNL1        0.2716
     42 C         142.3048  136.0246  156.3097 C.3     1  UNL1        0.4210
     43 F         142.0777  134.5464  156.4251 F       1  UNL1       -0.1680
     44 F         143.7261  135.8409  156.7526 F       1  UNL1       -0.1680
     45 F         140.8836  136.2084  155.8668 F       1  UNL1       -0.1680
@<TRIPOS>BOND
     1    11    12    1
     2    12     8    1
     3     8     9   am
     4     9    10    2
     5     9    13    1
     6    13    14    1
     7    14    15   ar
     8    15    16   ar
     9    16    17   ar
    10    17    20    1
    11    20    21    1
    12    20    22    2
    13    20    23    2
    14    17    18   ar
    15    18    19   ar
    16     8     2    1
    17     2     3    1
    18     3     4    1
    19     4     5    1
    20     5     1    1
    21     1    24    1
    22    25    24    1
    23    25    26    1
    24    26    27   ar
    25    27    28   ar
    26    28    29   ar
    27    29    30   ar
    28    30    31   ar
    29    25    32    1
    30    32    33    1
    31    33    34    1
    32    34    35    1
    33    35    38    1
    34    38    39    2
    35    38    40    2
    36    38    41    1
    37    41    42    1
    38    42    43    1
    39    42    44    1
    40    42    45    1
    41    35    36    1
    42    36    37    1
    43     5     6    1
    44     6     7    1
    45    19    14   ar
    46     7     2    1
    47    31    26   ar
    48    37    32    1
@<TRIPOS>MOLECULE
*****
 45 48 0 0 0
SMALL
GASTEIGER

@<TRIPOS>ATOM
      1 C         144.4943  139.6273  162.7772 C.3     1  UNL1        0.0738
      2 C         142.6562  140.5336  166.7835 C.3     1  UNL1        0.0781
      3 C         142.9389  139.1135  166.3920 C.3     1  UNL1        0.0372
      4 C         143.5516  138.8114  165.0566 C.3     1  UNL1        0.0738
      5 N         143.8816  139.9294  164.1126 N.3     1  UNL1       -0.2725
      6 C         143.5989  141.3497  164.5041 C.3     1  UNL1        0.0738
      7 C         142.9862  141.6518  165.8395 C.3     1  UNL1        0.0372
      8 N         142.0436  140.8357  168.1189 N.am    1  UNL1       -0.2808
      9 C         140.5539  140.9510  168.2518 C.2     1  UNL1        0.2300
     10 O         139.9412  141.2531  169.5872 O.2     1  UNL1       -0.2745
     11 C         143.6480  142.3185  169.5249 C.3     1  UNL1        0.0233
     12 C         142.9205  141.0226  169.3214 C.3     1  UNL1        0.0934
     13 C         139.6769  140.7641  167.0493 C.3     1  UNL1        0.1116
     14 C         139.6301  141.8191  165.9840 C.ar    1  UNL1       -0.0130
     15 C         139.8743  143.2556  166.3397 C.ar    1  UNL1       -0.0025
     16 C         139.8275  144.3105  165.2744 C.ar    1  UNL1        0.0180
     17 C         139.5363  143.9288  163.8533 C.ar    1  UNL1        0.1057
     18 C         139.2921  142.4922  163.4975 C.ar    1  UNL1        0.0180
     19 C         139.3389  141.4374  164.5629 C.ar    1  UNL1       -0.0025
     20 S         139.4895  144.9838  162.7879 S.O2    1  UNL1        0.0104
     21 C         139.4427  146.0387  161.7226 C.3     1  UNL1        0.1816
     22 O         140.8960  145.3836  163.1220 O.2     1  UNL1       -0.1686
     23 O         138.0829  144.5839  162.4538 O.2     1  UNL1       -0.1686
     24 C         143.6571  139.0284  161.6862 C.3     1  UNL1        0.0378
     25 C         142.3247  139.6287  161.3479 C.3     1  UNL1        0.0815
     26 C         141.0645  138.9889  161.8504 C.ar    1  UNL1       -0.0077
     27 C         139.8056  139.0727  161.0391 C.ar    1  UNL1       -0.0030
     28 C         138.5455  138.4329  161.5416 C.ar    1  UNL1       -0.0003
     29 C         138.5441  137.7092  162.8555 C.ar    1  UNL1       -0.0000
     30 C         139.8029  137.6254  163.6668 C.ar    1  UNL1       -0.0003
     31 C         141.0632  138.2652  163.1643 C.ar    1  UNL1       -0.0030
     32 N         142.2525  140.8688  160.5071 N.3     1  UNL1       -0.2678
     33 C         141.9233  142.1873  161.1421 C.3     1  UNL1        0.0917
     34 C         141.8510  143.4274  160.3012 C.3     1  UNL1        0.1128
     35 N         142.1080  143.3489  158.8255 N.3     1  UNL1       -0.1563
     36 C         142.4372  142.0304  158.1906 C.3     1  UNL1        0.1128
     37 C         142.5095  140.7904  159.0313 C.3     1  UNL1        0.0917
     38 S         142.0358  144.5891  157.9846 S.O2    1  UNL1        0.0526
     39 O         141.9610  143.7454  156.7467 O.2     1  UNL1       -0.1570
     40 O         142.1106  145.4327  159.2226 O.2     1  UNL1       -0.1570
     41 C         141.9636  145.8291  157.1438 C.3     1  UNL1        0.2716
     42 C         140.7409  146.1069  156.3205 C.3     1  UNL1        0.4210
     43 F         139.5181  146.3846  155.4972 F       1  UNL1       -0.1680
     44 F         139.8877  145.9915  157.5488 F       1  UNL1       -0.1680
     45 F         141.5942  146.2222  155.0923 F       1  UNL1       -0.1680
@<TRIPOS>BOND
     1    11    12    1
     2    12     8    1
     3     8     9   am
     4     9    10    2
     5     9    13    1
     6    13    14    1
     7    14    15   ar
     8    15    16   ar
     9    16    17   ar
    10    17    20    1
    11    20    21    1
    12    20    22    2
    13    20    23    2
    14    17    18   ar
    15    18    19   ar
    16     8     2    1
    17     2     3    1
    18     3     4    1
    19     4     5    1
    20     5     1    1
    21     1    24    1
    22    25    24    1
    23    25    26    1
    24    26    27   ar
    25    27    28   ar
    26    28    29   ar
    27    29    30   ar
    28    30    31   ar
    29    25    32    1
    30    32    33    1
    31    33    34    1
    32    34    35    1
    33    35    38    1
    34    38    39    2
    35    38    40    2
    36    38    41    1
    37    41    42    1
    38    42    43    1
    39    42    44    1
    40    42    45    1
    41    35    36    1
    42    36    37    1
    43     5     6    1
    44     6     7    1
    45    19    14   ar
    46     7     2    1
    47    31    26   ar
    48    37    32    1
@<TRIPOS>MOLECULE
*****
 45 48 0 0 0
SMALL
GASTEIGER

@<TRIPOS>ATOM
      1 C         145.0383  142.0821  161.7333 C.3     1  UNL1        0.0738
      2 C         142.5827  139.2855  159.2037 C.3     1  UNL1        0.0781
      3 C         142.9280  138.9126  160.6150 C.3     1  UNL1        0.0372
      4 C         143.7465  139.8448  161.4582 C.3     1  UNL1        0.0738
      5 N         144.2198  141.1499  160.8901 N.3     1  UNL1       -0.2725
      6 C         143.8744  141.5229  159.4788 C.3     1  UNL1        0.0738
      7 C         143.0559  140.5907  158.6356 C.3     1  UNL1        0.0372
      8 N         141.7641  138.3533  158.3605 N.am    1  UNL1       -0.2808
      9 C         140.2780  138.5354  158.2676 C.2     1  UNL1        0.2300
     10 O         139.4595  137.6032  157.4244 O.2     1  UNL1       -0.2745
     11 C         143.2297  137.5387  156.3761 C.3     1  UNL1        0.0233
     12 C         142.4315  137.2391  157.6102 C.3     1  UNL1        0.0934
     13 C         139.6106  139.6497  159.0179 C.3     1  UNL1        0.1116
     14 C         139.3182  139.4987  160.4814 C.ar    1  UNL1       -0.0130
     15 C         139.0882  140.7143  161.3296 C.ar    1  UNL1       -0.0025
     16 C         138.7958  140.5634  162.7930 C.ar    1  UNL1        0.0180
     17 C         138.7335  139.1968  163.4083 C.ar    1  UNL1        0.1057
     18 C         138.9636  137.9812  162.5602 C.ar    1  UNL1        0.0180
     19 C         139.2559  138.1322  161.0968 C.ar    1  UNL1       -0.0025
     20 S         138.4411  139.0459  164.8718 S.O2    1  UNL1        0.0104
     21 C         138.1488  138.8950  166.3353 C.3     1  UNL1        0.1816
     22 O         138.1177  140.5080  164.9579 O.2     1  UNL1       -0.1686
     23 O         138.7646  137.5837  164.7857 O.2     1  UNL1       -0.1686
     24 C         144.4835  143.4184  162.1288 C.3     1  UNL1        0.0378
     25 C         143.1567  143.5039  162.8233 C.3     1  UNL1        0.0815
     26 C         142.0413  144.3007  162.2142 C.ar    1  UNL1       -0.0077
     27 C         141.1661  145.1529  163.0847 C.ar    1  UNL1       -0.0030
     28 C         140.0507  145.9497  162.4756 C.ar    1  UNL1       -0.0003
     29 C         139.8105  145.8942  160.9960 C.ar    1  UNL1       -0.0000
     30 C         140.6856  145.0421  160.1255 C.ar    1  UNL1       -0.0003
     31 C         141.8011  144.2452  160.7346 C.ar    1  UNL1       -0.0030
     32 N         142.9453  142.7926  164.1268 N.3     1  UNL1       -0.2678
     33 C         143.7577  143.1728  165.3291 C.3     1  UNL1        0.0917
     34 C         143.5463  142.4615  166.6327 C.3     1  UNL1        0.1128
     35 N         142.5224  141.3700  166.7340 N.3     1  UNL1       -0.1563
     36 C         141.7099  140.9898  165.5318 C.3     1  UNL1        0.1128
     37 C         141.9213  141.7011  164.2282 C.3     1  UNL1        0.0917
     38 S         142.3109  140.6587  168.0377 S.O2    1  UNL1        0.0526
     39 O         142.8538  139.3961  167.4368 O.2     1  UNL1       -0.1570
     40 O         141.7681  141.9213  168.6385 O.2     1  UNL1       -0.1570
     41 C         142.0994  139.9474  169.3412 C.3     1  UNL1        0.2716
     42 C         140.7709  140.0284  170.0328 C.3     1  UNL1        0.4210
     43 F         139.4423  140.1094  170.7245 F       1  UNL1       -0.1680
     44 F         141.4552  140.4550  171.2975 F       1  UNL1       -0.1680
     45 F         140.0865  139.6018  168.7681 F       1  UNL1       -0.1680
@<TRIPOS>BOND
     1    11    12    1
     2    12     8    1
     3     8     9   am
     4     9    10    2
     5     9    13    1
     6    13    14    1
     7    14    15   ar
     8    15    16   ar
     9    16    17   ar
    10    17    20    1
    11    20    21    1
    12    20    22    2
    13    20    23    2
    14    17    18   ar
    15    18    19   ar
    16     8     2    1
    17     2     3    1
    18     3     4    1
    19     4     5    1
    20     5     1    1
    21     1    24    1
    22    25    24    1
    23    25    26    1
    24    26    27   ar
    25    27    28   ar
    26    28    29   ar
    27    29    30   ar
    28    30    31   ar
    29    25    32    1
    30    32    33    1
    31    33    34    1
    32    34    35    1
    33    35    38    1
    34    38    39    2
    35    38    40    2
    36    38    41    1
    37    41    42    1
    38    42    43    1
    39    42    44    1
    40    42    45    1
    41    35    36    1
    42    36    37    1
    43     5     6    1
    44     6     7    1
    45    19    14   ar
    46     7     2    1
    47    31    26   ar
    48    37    32    1
@<TRIPOS>MOLECULE
*****
 45 48 0 0 0
SMALL
GASTEIGER

@<TRIPOS>ATOM
      1 C         144.3620  139.1523  162.8639 C.3     1  UNL1        0.0738
      2 C         142.5955  140.4324  166.7997 C.3     1  UNL1        0.0781
      3 C         142.5998  138.9824  166.4158 C.3     1  UNL1        0.0372
      4 C         143.1886  138.5557  165.1038 C.3     1  UNL1        0.0738
      5 N         143.7732  139.5790  164.1759 N.3     1  UNL1       -0.2725
      6 C         143.7689  141.0291  164.5598 C.3     1  UNL1        0.0738
      7 C         143.1801  141.4558  165.8718 C.3     1  UNL1        0.0372
      8 N         142.0066  140.8591  168.1117 N.am    1  UNL1       -0.2808
      9 C         140.5338  141.1209  168.2230 C.2     1  UNL1        0.2300
     10 O         139.9450  141.5477  169.5349 O.2     1  UNL1       -0.2745
     11 C         143.5872  142.3297  169.5570 C.3     1  UNL1        0.0233
     12 C         142.8905  141.0240  169.3123 C.3     1  UNL1        0.0934
     13 C         139.6499  140.9560  167.0224 C.3     1  UNL1        0.1116
     14 C         139.6601  141.9902  165.9358 C.ar    1  UNL1       -0.0130
     15 C         139.6774  143.4481  166.2881 C.ar    1  UNL1       -0.0025
     16 C         139.6875  144.4821  165.2015 C.ar    1  UNL1        0.0180
     17 C         139.6804  144.0582  163.7627 C.ar    1  UNL1        0.1057
     18 C         139.6631  142.6003  163.4104 C.ar    1  UNL1        0.0180
     19 C         139.6530  141.5663  164.4969 C.ar    1  UNL1       -0.0025
     20 S         139.6906  145.0923  162.6761 S.O2    1  UNL1        0.0104
     21 C         139.7007  146.1264  161.5896 C.3     1  UNL1        0.1816
     22 O         138.2608  144.7705  162.3565 O.2     1  UNL1       -0.1686
     23 O         141.1203  145.4142  162.9957 O.2     1  UNL1       -0.1686
     24 C         143.6888  138.0867  162.0508 C.3     1  UNL1        0.0378
     25 C         142.6471  138.4615  161.0386 C.3     1  UNL1        0.0815
     26 C         141.2108  138.5876  161.4520 C.ar    1  UNL1       -0.0077
     27 C         140.6667  137.7198  162.5480 C.ar    1  UNL1       -0.0030
     28 C         139.2304  137.8460  162.9613 C.ar    1  UNL1       -0.0003
     29 C         138.3380  138.8399  162.2788 C.ar    1  UNL1       -0.0000
     30 C         138.8820  139.7076  161.1829 C.ar    1  UNL1       -0.0003
     31 C         140.3184  139.5815  160.7695 C.ar    1  UNL1       -0.0030
     32 N         143.0418  138.7101  159.6130 N.3     1  UNL1       -0.2678
     33 C         143.7914  139.9574  159.2490 C.3     1  UNL1        0.0917
     34 C         144.1861  140.2060  157.8233 C.3     1  UNL1        0.1128
     35 N         143.8313  139.2074  156.7618 N.3     1  UNL1       -0.1563
     36 C         143.0818  137.9601  157.1259 C.3     1  UNL1        0.1128
     37 C         142.6870  137.7115  158.5514 C.3     1  UNL1        0.0917
     38 S         144.2260  139.4560  155.3361 S.O2    1  UNL1        0.0526
     39 O         145.1986  138.3163  155.4066 O.2     1  UNL1       -0.1570
     40 O         143.2534  140.5958  155.2656 O.2     1  UNL1       -0.1570
     41 C         144.6207  139.7047  153.9105 C.3     1  UNL1        0.2716
     42 C         145.1455  141.0489  153.5012 C.3     1  UNL1        0.4210
     43 F         145.6705  142.3931  153.0919 F       1  UNL1       -0.1680
     44 F         146.1578  140.9902  154.6065 F       1  UNL1       -0.1680
     45 F         144.1333  141.1075  152.3958 F       1  UNL1       -0.1680
@<TRIPOS>BOND
     1    11    12    1
     2    12     8    1
     3     8     9   am
     4     9    10    2
     5     9    13    1
     6    13    14    1
     7    14    15   ar
     8    15    16   ar
     9    16    17   ar
    10    17    20    1
    11    20    21    1
    12    20    22    2
    13    20    23    2
    14    17    18   ar
    15    18    19   ar
    16     8     2    1
    17     2     3    1
    18     3     4    1
    19     4     5    1
    20     5     1    1
    21     1    24    1
    22    25    24    1
    23    25    26    1
    24    26    27   ar
    25    27    28   ar
    26    28    29   ar
    27    29    30   ar
    28    30    31   ar
    29    25    32    1
    30    32    33    1
    31    33    34    1
    32    34    35    1
    33    35    38    1
    34    38    39    2
    35    38    40    2
    36    38    41    1
    37    41    42    1
    38    42    43    1
    39    42    44    1
    40    42    45    1
    41    35    36    1
    42    36    37    1
    43     5     6    1
    44     6     7    1
    45    19    14   ar
    46     7     2    1
    47    31    26   ar
    48    37    32    1
@<TRIPOS>MOLECULE
*****
 45 48 0 0 0
SMALL
GASTEIGER

@<TRIPOS>ATOM
      1 C         145.4391  141.1772  163.4819 C.3     1  UNL1        0.0738
      2 C         142.5205  140.5927  166.8569 C.3     1  UNL1        0.0781
      3 C         143.0801  139.4030  166.1347 C.3     1  UNL1        0.0372
      4 C         144.0530  139.5979  165.0097 C.3     1  UNL1        0.0738
      5 N         144.4662  140.9824  164.6069 N.3     1  UNL1       -0.2725
      6 C         143.9066  142.1721  165.3290 C.3     1  UNL1        0.0738
      7 C         142.9338  141.9773  166.4540 C.3     1  UNL1        0.0372
      8 N         141.5477  140.3978  167.9819 N.am    1  UNL1       -0.2808
      9 C         140.1027  140.1258  167.6851 C.2     1  UNL1        0.2300
     10 O         139.1298  139.9310  168.8101 O.2     1  UNL1       -0.2745
     11 C         141.9966  141.7863  170.1313 C.3     1  UNL1        0.0233
     12 C         142.0198  140.4750  169.4035 C.3     1  UNL1        0.0934
     13 C         139.6305  140.0487  166.2635 C.3     1  UNL1        0.1116
     14 C         139.6065  141.2841  165.4131 C.ar    1  UNL1       -0.0130
     15 C         139.4113  141.1703  163.9302 C.ar    1  UNL1       -0.0025
     16 C         139.3873  142.4057  163.0799 C.ar    1  UNL1        0.0180
     17 C         139.5583  143.7550  163.7124 C.ar    1  UNL1        0.1057
     18 C         139.7534  143.8689  165.1953 C.ar    1  UNL1        0.0180
     19 C         139.7775  142.6335  166.0456 C.ar    1  UNL1       -0.0025
     20 S         139.5342  144.9905  162.8620 S.O2    1  UNL1        0.0104
     21 C         139.5101  146.2258  162.0117 C.3     1  UNL1        0.1816
     22 O         138.1586  144.6334  162.3823 O.2     1  UNL1       -0.1686
     23 O         140.9098  145.3476  163.3418 O.2     1  UNL1       -0.1686
     24 C         145.0585  142.0160  162.2980 C.3     1  UNL1        0.0378
     25 C         143.9595  141.5655  161.3819 C.3     1  UNL1        0.0815
     26 C         143.3954  140.1816  161.5110 C.ar    1  UNL1       -0.0077
     27 C         144.1600  139.0071  160.9763 C.ar    1  UNL1       -0.0030
     28 C         143.5960  137.6232  161.1054 C.ar    1  UNL1       -0.0003
     29 C         142.2673  137.4138  161.7693 C.ar    1  UNL1       -0.0000
     30 C         141.5027  138.5883  162.3041 C.ar    1  UNL1       -0.0003
     31 C         142.0667  139.9722  162.1749 C.ar    1  UNL1       -0.0030
     32 N         143.4246  142.4988  160.3366 N.3     1  UNL1       -0.2678
     33 C         143.9851  142.4676  158.9456 C.3     1  UNL1        0.0917
     34 C         143.4501  143.4010  157.9003 C.3     1  UNL1        0.1128
     35 N         142.3547  144.3657  158.2461 N.3     1  UNL1       -0.1563
     36 C         141.7942  144.3969  159.6371 C.3     1  UNL1        0.1128
     37 C         142.3291  143.4635  160.6823 C.3     1  UNL1        0.0917
     38 S         141.8197  145.2991  157.2008 S.O2    1  UNL1        0.0526
     39 O         141.0315  144.1736  156.5991 O.2     1  UNL1       -0.1570
     40 O         142.6079  146.4245  157.8025 O.2     1  UNL1       -0.1570
     41 C         141.2848  146.2325  156.1556 C.3     1  UNL1        0.2716
     42 C         139.8051  146.4377  156.0198 C.3     1  UNL1        0.4210
     43 F         138.3254  146.6428  155.8840 F       1  UNL1       -0.1680
     44 F         139.8836  146.0467  154.5738 F       1  UNL1       -0.1680
     45 F         139.7267  146.8287  157.4658 F       1  UNL1       -0.1680
@<TRIPOS>BOND
     1    11    12    1
     2    12     8    1
     3     8     9   am
     4     9    10    2
     5     9    13    1
     6    13    14    1
     7    14    15   ar
     8    15    16   ar
     9    16    17   ar
    10    17    20    1
    11    20    21    1
    12    20    22    2
    13    20    23    2
    14    17    18   ar
    15    18    19   ar
    16     8     2    1
    17     2     3    1
    18     3     4    1
    19     4     5    1
    20     5     1    1
    21     1    24    1
    22    25    24    1
    23    25    26    1
    24    26    27   ar
    25    27    28   ar
    26    28    29   ar
    27    29    30   ar
    28    30    31   ar
    29    25    32    1
    30    32    33    1
    31    33    34    1
    32    34    35    1
    33    35    38    1
    34    38    39    2
    35    38    40    2
    36    38    41    1
    37    41    42    1
    38    42    43    1
    39    42    44    1
    40    42    45    1
    41    35    36    1
    42    36    37    1
    43     5     6    1
    44     6     7    1
    45    19    14   ar
    46     7     2    1
    47    31    26   ar
    48    37    32    1
