@<TRIPOS>MOLECULE
*****
 34 38 0 0 0
SMALL
GASTEIGER

@<TRIPOS>ATOM
      1 O         138.6193  139.4182  168.5662 O.2     1  UNL1       -0.2669
      2 C         139.8622  140.0205  167.9808 C.ar    1  UNL1        0.2636
      3 C         140.7453  140.8886  168.8274 C.ar    1  UNL1        0.0739
      4 C         140.3857  141.1543  170.2591 C.ar    1  UNL1        0.0063
      5 C         141.2689  142.0223  171.1056 C.ar    1  UNL1        0.0003
      6 C         142.5117  142.6247  170.5202 C.ar    1  UNL1        0.0015
      7 C         142.8713  142.3590  169.0884 C.ar    1  UNL1        0.0193
      8 C         141.9882  141.4909  168.2420 C.ar    1  UNL1        0.0875
      9 N         142.3478  141.2252  166.8102 N.ar    1  UNL1       -0.2280
     10 C         141.4646  140.3572  165.9637 C.ar    1  UNL1        0.1462
     11 N         140.2218  139.7549  166.5491 N.ar    1  UNL1       -0.2764
     12 C         141.8242  140.0915  164.5319 C.ar    1  UNL1        0.0344
     13 C         141.4440  141.0778  163.4676 C.ar    1  UNL1        0.0061
     14 C         141.8036  140.8121  162.0358 C.ar    1  UNL1        0.0370
     15 C         142.5434  139.5601  161.6683 C.ar    1  UNL1        0.1386
     16 C         142.9236  138.5738  162.7325 C.ar    1  UNL1        0.0370
     17 C         142.5640  138.8394  164.1643 C.ar    1  UNL1        0.0061
     18 O         142.9030  139.2944  160.2364 O.3     1  UNL1       -0.4754
     19 C         143.8678  140.1965  159.5256 C.3     1  UNL1        0.2068
     20 C         143.7256  141.6854  159.6396 C.3     1  UNL1        0.0646
     21 C         144.7800  142.4878  160.3428 C.3     1  UNL1        0.0759
     22 N         144.7072  142.6839  161.8281 N.3     1  UNL1       -0.2726
     23 C         145.3717  141.7026  162.7476 C.3     1  UNL1        0.0721
     24 C         145.2989  141.8987  164.2330 C.3     1  UNL1        0.0174
     25 C         144.5617  143.0762  164.7988 C.3     1  UNL1        0.0029
     26 C         143.8972  144.0575  163.8793 C.3     1  UNL1        0.0174
     27 C         143.9700  143.8614  162.3940 C.3     1  UNL1        0.0721
     28 C         139.3386  138.8868  165.7025 C.3     1  UNL1        0.1372
     29 C         138.7040  139.4449  164.4633 C.ar    1  UNL1        0.0005
     30 C         138.7253  138.6546  163.1886 C.ar    1  UNL1       -0.0024
     31 C         138.0907  139.2127  161.9494 C.ar    1  UNL1       -0.0003
     32 C         137.4349  140.5612  161.9848 C.ar    1  UNL1       -0.0000
     33 C         137.4136  141.3517  163.2595 C.ar    1  UNL1       -0.0003
     34 C         138.0482  140.7936  164.4987 C.ar    1  UNL1       -0.0024
@<TRIPOS>BOND
     1     1     2    2
     2     2     3   ar
     3     3     4   ar
     4     4     5   ar
     5     5     6   ar
     6     6     7   ar
     7     7     8   ar
     8     8     9   ar
     9     9    10   ar
    10    10    12    1
    11    12    13   ar
    12    13    14   ar
    13    14    15   ar
    14    15    18    1
    15    18    19    1
    16    19    20    1
    17    20    21    1
    18    21    22    1
    19    22    23    1
    20    23    24    1
    21    24    25    1
    22    25    26    1
    23    26    27    1
    24    15    16   ar
    25    16    17   ar
    26    10    11   ar
    27    11    28    1
    28    28    29    1
    29    29    30   ar
    30    30    31   ar
    31    31    32   ar
    32    32    33   ar
    33    33    34   ar
    34    11     2   ar
    35    34    29   ar
    36     8     3   ar
    37    17    12   ar
    38    27    22    1
@<TRIPOS>MOLECULE
*****
 34 38 0 0 0
SMALL
GASTEIGER

@<TRIPOS>ATOM
      1 O         143.1997  138.7472  168.3650 O.2     1  UNL1       -0.2669
      2 C         142.6118  140.0439  167.8927 C.ar    1  UNL1        0.2636
      3 C         141.7926  140.8813  168.8296 C.ar    1  UNL1        0.0739
      4 C         141.5615  140.4222  170.2388 C.ar    1  UNL1        0.0063
      5 C         140.7425  141.2596  171.1756 C.ar    1  UNL1        0.0003
      6 C         140.1545  142.5562  170.7033 C.ar    1  UNL1        0.0015
      7 C         140.3856  143.0154  169.2942 C.ar    1  UNL1        0.0193
      8 C         141.2047  142.1780  168.3573 C.ar    1  UNL1        0.0875
      9 N         141.4358  142.6371  166.9481 N.ar    1  UNL1       -0.2280
     10 C         142.2549  141.7997  166.0113 C.ar    1  UNL1        0.1462
     11 N         142.8429  140.5030  166.4836 N.ar    1  UNL1       -0.2764
     12 C         142.4860  142.2588  164.6020 C.ar    1  UNL1        0.0344
     13 C         141.5922  141.7741  163.4992 C.ar    1  UNL1        0.0061
     14 C         141.8233  142.2332  162.0901 C.ar    1  UNL1        0.0370
     15 C         142.9482  143.1770  161.7837 C.ar    1  UNL1        0.1386
     16 C         143.8420  143.6617  162.8866 C.ar    1  UNL1        0.0370
     17 C         143.6109  143.2026  164.2957 C.ar    1  UNL1        0.0061
     18 O         143.1793  143.6362  160.3745 O.3     1  UNL1       -0.4754
     19 C         142.0385  144.1791  159.5660 C.3     1  UNL1        0.2068
     20 C         141.0664  145.1365  160.1891 C.3     1  UNL1        0.0646
     21 C         139.6573  144.7019  160.4641 C.3     1  UNL1        0.0759
     22 N         139.2286  144.3916  161.8676 N.3     1  UNL1       -0.2726
     23 C         138.1884  143.3405  162.1190 C.3     1  UNL1        0.0721
     24 C         137.7596  143.0302  163.5226 C.3     1  UNL1        0.0174
     25 C         138.3711  143.7709  164.6747 C.3     1  UNL1        0.0029
     26 C         139.4114  144.8220  164.4233 C.3     1  UNL1        0.0174
     27 C         139.8401  145.1323  163.0198 C.3     1  UNL1        0.0721
     28 C         143.6620  139.6656  165.5466 C.3     1  UNL1        0.1372
     29 C         142.9927  138.9056  164.4401 C.ar    1  UNL1        0.0005
     30 C         143.6069  138.8764  163.0719 C.ar    1  UNL1       -0.0024
     31 C         142.9376  138.1163  161.9654 C.ar    1  UNL1       -0.0003
     32 C         141.6541  137.3855  162.2270 C.ar    1  UNL1       -0.0000
     33 C         141.0398  137.4147  163.5952 C.ar    1  UNL1       -0.0003
     34 C         141.7091  138.1747  164.7018 C.ar    1  UNL1       -0.0024
@<TRIPOS>BOND
     1     1     2    2
     2     2     3   ar
     3     3     4   ar
     4     4     5   ar
     5     5     6   ar
     6     6     7   ar
     7     7     8   ar
     8     8     9   ar
     9     9    10   ar
    10    10    12    1
    11    12    13   ar
    12    13    14   ar
    13    14    15   ar
    14    15    18    1
    15    18    19    1
    16    19    20    1
    17    20    21    1
    18    21    22    1
    19    22    23    1
    20    23    24    1
    21    24    25    1
    22    25    26    1
    23    26    27    1
    24    15    16   ar
    25    16    17   ar
    26    10    11   ar
    27    11    28    1
    28    28    29    1
    29    29    30   ar
    30    30    31   ar
    31    31    32   ar
    32    32    33   ar
    33    33    34   ar
    34    11     2   ar
    35    34    29   ar
    36     8     3   ar
    37    17    12   ar
    38    27    22    1
@<TRIPOS>MOLECULE
*****
 34 38 0 0 0
SMALL
GASTEIGER

@<TRIPOS>ATOM
      1 O         139.0174  139.4876  168.4673 O.2     1  UNL1       -0.2669
      2 C         139.9128  140.4447  167.7378 C.ar    1  UNL1        0.2636
      3 C         141.1488  140.9720  168.4044 C.ar    1  UNL1        0.0739
      4 C         141.4893  140.5422  169.8006 C.ar    1  UNL1        0.0063
      5 C         142.7252  141.0696  170.4672 C.ar    1  UNL1        0.0003
      6 C         143.6206  142.0267  169.7377 C.ar    1  UNL1        0.0015
      7 C         143.2800  142.4565  168.3415 C.ar    1  UNL1        0.0193
      8 C         142.0441  141.9291  167.6749 C.ar    1  UNL1        0.0875
      9 N         141.7036  142.3589  166.2787 N.ar    1  UNL1       -0.2280
     10 C         140.4677  141.8316  165.6121 C.ar    1  UNL1        0.1462
     11 N         139.5723  140.8745  166.3416 N.ar    1  UNL1       -0.2764
     12 C         140.1271  142.2614  164.2159 C.ar    1  UNL1        0.0344
     13 C         139.1901  143.4113  163.9926 C.ar    1  UNL1        0.0061
     14 C         138.8495  143.8411  162.5965 C.ar    1  UNL1        0.0370
     15 C         139.4459  143.1210  161.4236 C.ar    1  UNL1        0.1386
     16 C         140.3829  141.9711  161.6468 C.ar    1  UNL1        0.0370
     17 C         140.7235  141.5413  163.0430 C.ar    1  UNL1        0.0061
     18 O         139.1053  143.5508  160.0274 O.3     1  UNL1       -0.4754
     19 C         140.0127  144.4899  159.2894 C.3     1  UNL1        0.2068
     20 C         141.1929  145.0969  159.9884 C.3     1  UNL1        0.0646
     21 C         142.4634  144.3129  160.1337 C.3     1  UNL1        0.0759
     22 N         143.0521  144.0841  161.4942 N.3     1  UNL1       -0.2726
     23 C         142.5482  144.8663  162.6707 C.3     1  UNL1        0.0721
     24 C         143.1369  144.6375  164.0313 C.3     1  UNL1        0.0174
     25 C         144.2295  143.6264  164.2153 C.3     1  UNL1        0.0029
     26 C         144.7334  142.8441  163.0388 C.3     1  UNL1        0.0174
     27 C         144.1447  143.0729  161.6783 C.3     1  UNL1        0.0721
     28 C         138.3363  140.3472  165.6749 C.3     1  UNL1        0.1372
     29 C         138.4498  139.5385  164.4167 C.ar    1  UNL1        0.0005
     30 C         139.3391  138.3312  164.3787 C.ar    1  UNL1       -0.0024
     31 C         139.4526  137.5226  163.1204 C.ar    1  UNL1       -0.0003
     32 C         138.6768  137.9212  161.9001 C.ar    1  UNL1       -0.0000
     33 C         137.7875  139.1286  161.9381 C.ar    1  UNL1       -0.0003
     34 C         137.6740  139.9373  163.1963 C.ar    1  UNL1       -0.0024
@<TRIPOS>BOND
     1     1     2    2
     2     2     3   ar
     3     3     4   ar
     4     4     5   ar
     5     5     6   ar
     6     6     7   ar
     7     7     8   ar
     8     8     9   ar
     9     9    10   ar
    10    10    12    1
    11    12    13   ar
    12    13    14   ar
    13    14    15   ar
    14    15    18    1
    15    18    19    1
    16    19    20    1
    17    20    21    1
    18    21    22    1
    19    22    23    1
    20    23    24    1
    21    24    25    1
    22    25    26    1
    23    26    27    1
    24    15    16   ar
    25    16    17   ar
    26    10    11   ar
    27    11    28    1
    28    28    29    1
    29    29    30   ar
    30    30    31   ar
    31    31    32   ar
    32    32    33   ar
    33    33    34   ar
    34    11     2   ar
    35    34    29   ar
    36     8     3   ar
    37    17    12   ar
    38    27    22    1
@<TRIPOS>MOLECULE
*****
 34 38 0 0 0
SMALL
GASTEIGER

@<TRIPOS>ATOM
      1 O         138.7903  138.8561  167.5941 O.2     1  UNL1       -0.2669
      2 C         139.3558  140.2423  167.5006 C.ar    1  UNL1        0.2636
      3 C         140.0476  140.8516  168.6840 C.ar    1  UNL1        0.0739
      4 C         140.1738  140.0747  169.9609 C.ar    1  UNL1        0.0063
      5 C         140.8654  140.6840  171.1442 C.ar    1  UNL1        0.0003
      6 C         141.4310  142.0702  171.0506 C.ar    1  UNL1        0.0015
      7 C         141.3048  142.8470  169.7737 C.ar    1  UNL1        0.0193
      8 C         140.6131  142.2377  168.5904 C.ar    1  UNL1        0.0875
      9 N         140.4869  143.0146  167.3134 N.ar    1  UNL1       -0.2280
     10 C         139.7952  142.4053  166.1301 C.ar    1  UNL1        0.1462
     11 N         139.2297  141.0191  166.2237 N.ar    1  UNL1       -0.2764
     12 C         139.6690  143.1822  164.8531 C.ar    1  UNL1        0.0344
     13 C         140.8942  143.5198  164.0564 C.ar    1  UNL1        0.0061
     14 C         140.7681  144.2967  162.7795 C.ar    1  UNL1        0.0370
     15 C         139.4167  144.7358  162.2992 C.ar    1  UNL1        0.1386
     16 C         138.1914  144.3982  163.0959 C.ar    1  UNL1        0.0370
     17 C         138.3175  143.6213  164.3728 C.ar    1  UNL1        0.0061
     18 O         139.2904  145.5127  161.0223 O.3     1  UNL1       -0.4754
     19 C         140.4890  145.7084  160.1419 C.3     1  UNL1        0.2068
     20 C         140.4827  145.1804  158.7380 C.3     1  UNL1        0.0646
     21 C         141.2673  143.9484  158.3964 C.3     1  UNL1        0.0759
     22 N         141.6398  142.9737  159.4740 N.3     1  UNL1       -0.2726
     23 C         140.6326  141.9756  159.9632 C.3     1  UNL1        0.0721
     24 C         141.0051  141.0008  161.0409 C.3     1  UNL1        0.0174
     25 C         142.3847  141.0243  161.6292 C.3     1  UNL1        0.0029
     26 C         143.3918  142.0225  161.1400 C.3     1  UNL1        0.0174
     27 C         143.0194  142.9972  160.0624 C.3     1  UNL1        0.0721
     28 C         138.5379  140.4099  165.0403 C.3     1  UNL1        0.1372
     29 C         139.2730  139.4470  164.1557 C.ar    1  UNL1        0.0005
     30 C         140.6940  139.0793  164.4650 C.ar    1  UNL1       -0.0024
     31 C         141.4291  138.1164  163.5804 C.ar    1  UNL1       -0.0003
     32 C         140.7432  137.5212  162.3866 C.ar    1  UNL1       -0.0000
     33 C         139.3222  137.8888  162.0772 C.ar    1  UNL1       -0.0003
     34 C         138.5871  138.8517  162.9618 C.ar    1  UNL1       -0.0024
@<TRIPOS>BOND
     1     1     2    2
     2     2     3   ar
     3     3     4   ar
     4     4     5   ar
     5     5     6   ar
     6     6     7   ar
     7     7     8   ar
     8     8     9   ar
     9     9    10   ar
    10    10    12    1
    11    12    13   ar
    12    13    14   ar
    13    14    15   ar
    14    15    18    1
    15    18    19    1
    16    19    20    1
    17    20    21    1
    18    21    22    1
    19    22    23    1
    20    23    24    1
    21    24    25    1
    22    25    26    1
    23    26    27    1
    24    15    16   ar
    25    16    17   ar
    26    10    11   ar
    27    11    28    1
    28    28    29    1
    29    29    30   ar
    30    30    31   ar
    31    31    32   ar
    32    32    33   ar
    33    33    34   ar
    34    11     2   ar
    35    34    29   ar
    36     8     3   ar
    37    17    12   ar
    38    27    22    1
@<TRIPOS>MOLECULE
*****
 34 38 0 0 0
SMALL
GASTEIGER

@<TRIPOS>ATOM
      1 O         139.4205  146.3598  160.5983 O.2     1  UNL1       -0.2669
      2 C         140.5313  145.5034  160.0666 C.ar    1  UNL1        0.2636
      3 C         140.8452  145.5075  158.5998 C.ar    1  UNL1        0.0739
      4 C         140.0482  146.3680  157.6647 C.ar    1  UNL1        0.0063
      5 C         140.3621  146.3721  156.1980 C.ar    1  UNL1        0.0003
      6 C         141.4729  145.5157  155.6663 C.ar    1  UNL1        0.0015
      7 C         142.2699  144.6552  156.6014 C.ar    1  UNL1        0.0193
      8 C         141.9560  144.6511  158.0681 C.ar    1  UNL1        0.0875
      9 N         142.7529  143.7906  159.0033 N.ar    1  UNL1       -0.2280
     10 C         142.4391  143.7865  160.4700 C.ar    1  UNL1        0.1462
     11 N         141.3282  144.6429  161.0017 N.ar    1  UNL1       -0.2764
     12 C         143.2360  142.9260  161.4052 C.ar    1  UNL1        0.0344
     13 C         143.1891  141.4325  161.2739 C.ar    1  UNL1        0.0061
     14 C         143.9860  140.5720  162.2090 C.ar    1  UNL1        0.0370
     15 C         144.8298  141.2050  163.2754 C.ar    1  UNL1        0.1386
     16 C         144.8767  142.6985  163.4067 C.ar    1  UNL1        0.0370
     17 C         144.0798  143.5590  162.4716 C.ar    1  UNL1        0.0061
     18 O         145.6268  140.3445  164.2106 O.3     1  UNL1       -0.4754
     19 C         145.0388  139.0715  164.7433 C.3     1  UNL1        0.2068
     20 C         143.7062  139.0913  165.4316 C.3     1  UNL1        0.0646
     21 C         142.5379  138.3723  164.8248 C.3     1  UNL1        0.0759
     22 N         141.1513  138.6295  165.3358 N.3     1  UNL1       -0.2726
     23 C         140.9040  139.7492  166.3029 C.3     1  UNL1        0.0721
     24 C         139.5174  140.0064  166.8139 C.3     1  UNL1        0.0174
     25 C         138.3780  139.1439  166.3579 C.3     1  UNL1        0.0029
     26 C         138.6253  138.0242  165.3909 C.3     1  UNL1        0.0174
     27 C         140.0119  137.7670  164.8798 C.3     1  UNL1        0.0721
     28 C         141.0144  144.6388  162.4686 C.3     1  UNL1        0.1372
     29 C         139.9181  143.7628  162.9985 C.ar    1  UNL1        0.0005
     30 C         139.9582  142.2828  162.7578 C.ar    1  UNL1       -0.0024
     31 C         138.8619  141.4068  163.2877 C.ar    1  UNL1       -0.0003
     32 C         137.7256  142.0108  164.0583 C.ar    1  UNL1       -0.0000
     33 C         137.6854  143.4908  164.2990 C.ar    1  UNL1       -0.0003
     34 C         138.7817  144.3668  163.7691 C.ar    1  UNL1       -0.0024
@<TRIPOS>BOND
     1     1     2    2
     2     2     3   ar
     3     3     4   ar
     4     4     5   ar
     5     5     6   ar
     6     6     7   ar
     7     7     8   ar
     8     8     9   ar
     9     9    10   ar
    10    10    12    1
    11    12    13   ar
    12    13    14   ar
    13    14    15   ar
    14    15    18    1
    15    18    19    1
    16    19    20    1
    17    20    21    1
    18    21    22    1
    19    22    23    1
    20    23    24    1
    21    24    25    1
    22    25    26    1
    23    26    27    1
    24    15    16   ar
    25    16    17   ar
    26    10    11   ar
    27    11    28    1
    28    28    29    1
    29    29    30   ar
    30    30    31   ar
    31    31    32   ar
    32    32    33   ar
    33    33    34   ar
    34    11     2   ar
    35    34    29   ar
    36     8     3   ar
    37    17    12   ar
    38    27    22    1
@<TRIPOS>MOLECULE
*****
 34 38 0 0 0
SMALL
GASTEIGER

@<TRIPOS>ATOM
      1 O         142.9746  138.8470  168.5268 O.2     1  UNL1       -0.2669
      2 C         142.1017  139.8725  167.8662 C.ar    1  UNL1        0.2636
      3 C         141.6574  141.0840  168.6310 C.ar    1  UNL1        0.0739
      4 C         142.0859  141.2700  170.0564 C.ar    1  UNL1        0.0063
      5 C         141.6416  142.4815  170.8211 C.ar    1  UNL1        0.0003
      6 C         140.7687  143.5069  170.1604 C.ar    1  UNL1        0.0015
      7 C         140.3401  143.3209  168.7351 C.ar    1  UNL1        0.0193
      8 C         140.7845  142.1095  167.9704 C.ar    1  UNL1        0.0875
      9 N         140.3559  141.9234  166.5449 N.ar    1  UNL1       -0.2280
     10 C         140.8002  140.7119  165.7802 C.ar    1  UNL1        0.1462
     11 N         141.6731  139.6865  166.4409 N.ar    1  UNL1       -0.2764
     12 C         140.3717  140.5259  164.3548 C.ar    1  UNL1        0.0344
     13 C         139.1591  139.7019  164.0377 C.ar    1  UNL1        0.0061
     14 C         138.7305  139.5158  162.6123 C.ar    1  UNL1        0.0370
     15 C         139.5145  140.1537  161.5041 C.ar    1  UNL1        0.1386
     16 C         140.7271  140.9778  161.8212 C.ar    1  UNL1        0.0370
     17 C         141.1557  141.1638  163.2465 C.ar    1  UNL1        0.0061
     18 O         139.0859  139.9677  160.0787 O.3     1  UNL1       -0.4754
     19 C         139.1027  141.1315  159.1325 C.3     1  UNL1        0.2068
     20 C         138.3779  142.3962  159.4862 C.3     1  UNL1        0.0646
     21 C         139.1299  143.5509  160.0788 C.3     1  UNL1        0.0759
     22 N         139.0398  143.8288  161.5501 N.3     1  UNL1       -0.2726
     23 C         137.8974  143.2755  162.3493 C.3     1  UNL1        0.0721
     24 C         137.8074  143.5534  163.8207 C.3     1  UNL1        0.0174
     25 C         138.8598  144.3846  164.4927 C.3     1  UNL1        0.0029
     26 C         140.0022  144.9379  163.6934 C.3     1  UNL1        0.0174
     27 C         140.0923  144.6600  162.2222 C.3     1  UNL1        0.0721
     28 C         142.1175  138.4749  165.6760 C.3     1  UNL1        0.1372
     29 C         142.8104  138.6343  164.3552 C.ar    1  UNL1        0.0005
     30 C         142.3317  137.8653  163.1596 C.ar    1  UNL1       -0.0024
     31 C         143.0246  138.0246  161.8388 C.ar    1  UNL1       -0.0003
     32 C         144.1961  138.9529  161.7136 C.ar    1  UNL1       -0.0000
     33 C         144.6749  139.7219  162.9093 C.ar    1  UNL1       -0.0003
     34 C         143.9820  139.5626  164.2301 C.ar    1  UNL1       -0.0024
@<TRIPOS>BOND
     1     1     2    2
     2     2     3   ar
     3     3     4   ar
     4     4     5   ar
     5     5     6   ar
     6     6     7   ar
     7     7     8   ar
     8     8     9   ar
     9     9    10   ar
    10    10    12    1
    11    12    13   ar
    12    13    14   ar
    13    14    15   ar
    14    15    18    1
    15    18    19    1
    16    19    20    1
    17    20    21    1
    18    21    22    1
    19    22    23    1
    20    23    24    1
    21    24    25    1
    22    25    26    1
    23    26    27    1
    24    15    16   ar
    25    16    17   ar
    26    10    11   ar
    27    11    28    1
    28    28    29    1
    29    29    30   ar
    30    30    31   ar
    31    31    32   ar
    32    32    33   ar
    33    33    34   ar
    34    11     2   ar
    35    34    29   ar
    36     8     3   ar
    37    17    12   ar
    38    27    22    1
@<TRIPOS>MOLECULE
*****
 34 38 0 0 0
SMALL
GASTEIGER

@<TRIPOS>ATOM
      1 O         144.0333  142.7081  168.8965 O.2     1  UNL1       -0.2669
      2 C         142.7746  142.2785  168.2029 C.ar    1  UNL1        0.2636
      3 C         141.7099  141.5474  168.9659 C.ar    1  UNL1        0.0739
      4 C         141.9039  141.2460  170.4224 C.ar    1  UNL1        0.0063
      5 C         140.8393  140.5150  171.1853 C.ar    1  UNL1        0.0003
      6 C         139.5806  140.0854  170.4917 C.ar    1  UNL1        0.0015
      7 C         139.3865  140.3868  169.0352 C.ar    1  UNL1        0.0193
      8 C         140.4512  141.1178  168.2723 C.ar    1  UNL1        0.0875
      9 N         140.2571  141.4192  166.8157 N.ar    1  UNL1       -0.2280
     10 C         141.3218  142.1502  166.0528 C.ar    1  UNL1        0.1462
     11 N         142.5805  142.5799  166.7464 N.ar    1  UNL1       -0.2764
     12 C         141.1278  142.4517  164.5962 C.ar    1  UNL1        0.0344
     13 C         141.4036  141.3946  163.5683 C.ar    1  UNL1        0.0061
     14 C         141.2096  141.6959  162.1118 C.ar    1  UNL1        0.0370
     15 C         140.7398  143.0544  161.6832 C.ar    1  UNL1        0.1386
     16 C         140.4640  144.1115  162.7110 C.ar    1  UNL1        0.0370
     17 C         140.6580  143.8101  164.1675 C.ar    1  UNL1        0.0061
     18 O         140.5458  143.3558  160.2266 O.3     1  UNL1       -0.4754
     19 C         139.8133  142.3832  159.3505 C.3     1  UNL1        0.2068
     20 C         138.3890  142.0249  159.6550 C.3     1  UNL1        0.0646
     21 C         138.0530  140.6555  160.1668 C.3     1  UNL1        0.0759
     22 N         138.0897  140.3756  161.6399 N.3     1  UNL1       -0.2726
     23 C         138.5772  139.0477  162.1391 C.3     1  UNL1        0.0721
     24 C         138.6139  138.7678  163.6124 C.3     1  UNL1        0.0174
     25 C         138.1631  139.8157  164.5863 C.3     1  UNL1        0.0029
     26 C         137.6756  141.1435  164.0872 C.3     1  UNL1        0.0174
     27 C         137.6389  141.4235  162.6140 C.3     1  UNL1        0.0721
     28 C         143.6452  143.3109  165.9834 C.3     1  UNL1        0.1372
     29 C         144.1600  142.7508  164.6907 C.ar    1  UNL1        0.0005
     30 C         144.2175  143.6174  163.4678 C.ar    1  UNL1       -0.0024
     31 C         144.7324  143.0573  162.1750 C.ar    1  UNL1       -0.0003
     32 C         145.1898  141.6305  162.1052 C.ar    1  UNL1       -0.0000
     33 C         145.1323  140.7637  163.3281 C.ar    1  UNL1       -0.0003
     34 C         144.6175  141.3239  164.6209 C.ar    1  UNL1       -0.0024
@<TRIPOS>BOND
     1     1     2    2
     2     2     3   ar
     3     3     4   ar
     4     4     5   ar
     5     5     6   ar
     6     6     7   ar
     7     7     8   ar
     8     8     9   ar
     9     9    10   ar
    10    10    12    1
    11    12    13   ar
    12    13    14   ar
    13    14    15   ar
    14    15    18    1
    15    18    19    1
    16    19    20    1
    17    20    21    1
    18    21    22    1
    19    22    23    1
    20    23    24    1
    21    24    25    1
    22    25    26    1
    23    26    27    1
    24    15    16   ar
    25    16    17   ar
    26    10    11   ar
    27    11    28    1
    28    28    29    1
    29    29    30   ar
    30    30    31   ar
    31    31    32   ar
    32    32    33   ar
    33    33    34   ar
    34    11     2   ar
    35    34    29   ar
    36     8     3   ar
    37    17    12   ar
    38    27    22    1
@<TRIPOS>MOLECULE
*****
 34 38 0 0 0
SMALL
GASTEIGER

@<TRIPOS>ATOM
      1 O         139.5975  146.4250  159.1251 O.2     1  UNL1       -0.2669
      2 C         140.7237  145.4590  159.3454 C.ar    1  UNL1        0.2636
      3 C         141.4740  144.9016  158.1722 C.ar    1  UNL1        0.0739
      4 C         141.0981  145.3102  156.7787 C.ar    1  UNL1        0.0063
      5 C         141.8485  144.7528  155.6056 C.ar    1  UNL1        0.0003
      6 C         142.9747  143.7868  155.8259 C.ar    1  UNL1        0.0015
      7 C         143.3506  143.3782  157.2194 C.ar    1  UNL1        0.0193
      8 C         142.6002  143.9356  158.3925 C.ar    1  UNL1        0.0875
      9 N         142.9761  143.5270  159.7860 N.ar    1  UNL1       -0.2280
     10 C         142.2258  144.0844  160.9592 C.ar    1  UNL1        0.1462
     11 N         141.0996  145.0504  160.7388 N.ar    1  UNL1       -0.2764
     12 C         142.6017  143.6759  162.3527 C.ar    1  UNL1        0.0344
     13 C         143.5026  144.5504  163.1734 C.ar    1  UNL1        0.0061
     14 C         143.8784  144.1419  164.5669 C.ar    1  UNL1        0.0370
     15 C         143.3534  142.8588  165.1396 C.ar    1  UNL1        0.1386
     16 C         142.4525  141.9843  164.3189 C.ar    1  UNL1        0.0370
     17 C         142.0766  142.3928  162.9255 C.ar    1  UNL1        0.0061
     18 O         143.7293  142.4503  166.5332 O.3     1  UNL1       -0.4754
     19 C         142.6598  142.1298  167.5350 C.3     1  UNL1        0.2068
     20 C         142.3986  140.7047  167.9231 C.3     1  UNL1        0.0646
     21 C         142.5121  139.6153  166.8983 C.3     1  UNL1        0.0759
     22 N         141.2899  139.1407  166.1697 N.3     1  UNL1       -0.2726
     23 C         139.9431  139.7006  166.5200 C.3     1  UNL1        0.0721
     24 C         138.7209  139.2259  165.7913 C.3     1  UNL1        0.0174
     25 C         138.8454  138.1914  164.7124 C.3     1  UNL1        0.0029
     26 C         140.1922  137.6314  164.3621 C.3     1  UNL1        0.0174
     27 C         141.4144  138.1061  165.0907 C.3     1  UNL1        0.0721
     28 C         140.3492  145.6078  161.9121 C.3     1  UNL1        0.1372
     29 C         139.4894  144.7075  162.7488 C.ar    1  UNL1        0.0005
     30 C         138.5828  143.7109  162.0894 C.ar    1  UNL1       -0.0024
     31 C         137.7230  142.8106  162.9261 C.ar    1  UNL1       -0.0003
     32 C         137.7698  142.9068  164.4223 C.ar    1  UNL1       -0.0000
     33 C         138.6764  143.9035  165.0818 C.ar    1  UNL1       -0.0003
     34 C         139.5362  144.8038  164.2450 C.ar    1  UNL1       -0.0024
@<TRIPOS>BOND
     1     1     2    2
     2     2     3   ar
     3     3     4   ar
     4     4     5   ar
     5     5     6   ar
     6     6     7   ar
     7     7     8   ar
     8     8     9   ar
     9     9    10   ar
    10    10    12    1
    11    12    13   ar
    12    13    14   ar
    13    14    15   ar
    14    15    18    1
    15    18    19    1
    16    19    20    1
    17    20    21    1
    18    21    22    1
    19    22    23    1
    20    23    24    1
    21    24    25    1
    22    25    26    1
    23    26    27    1
    24    15    16   ar
    25    16    17   ar
    26    10    11   ar
    27    11    28    1
    28    28    29    1
    29    29    30   ar
    30    30    31   ar
    31    31    32   ar
    32    32    33   ar
    33    33    34   ar
    34    11     2   ar
    35    34    29   ar
    36     8     3   ar
    37    17    12   ar
    38    27    22    1
@<TRIPOS>MOLECULE
*****
 34 38 0 0 0
SMALL
GASTEIGER

@<TRIPOS>ATOM
      1 O         141.8093  145.6411  159.0931 O.2     1  UNL1       -0.2669
      2 C         140.8401  144.5670  159.4892 C.ar    1  UNL1        0.2636
      3 C         139.9118  143.9804  158.4672 C.ar    1  UNL1        0.0739
      4 C         139.9528  144.4679  157.0493 C.ar    1  UNL1        0.0063
      5 C         139.0245  143.8814  156.0275 C.ar    1  UNL1        0.0003
      6 C         138.0553  142.8073  156.4236 C.ar    1  UNL1        0.0015
      7 C         138.0143  142.3198  157.8415 C.ar    1  UNL1        0.0193
      8 C         138.9426  142.9063  158.8633 C.ar    1  UNL1        0.0875
      9 N         138.9016  142.4188  160.2814 N.ar    1  UNL1       -0.2280
     10 C         139.8299  143.0054  161.3032 C.ar    1  UNL1        0.1462
     11 N         140.7991  144.0795  160.9071 N.ar    1  UNL1       -0.2764
     12 C         139.7889  142.5179  162.7213 C.ar    1  UNL1        0.0344
     13 C         138.7945  143.0954  163.6844 C.ar    1  UNL1        0.0061
     14 C         138.7535  142.6079  165.1024 C.ar    1  UNL1        0.0370
     15 C         139.7070  141.5431  165.5572 C.ar    1  UNL1        0.1386
     16 C         140.7014  140.9656  164.5940 C.ar    1  UNL1        0.0370
     17 C         140.7424  141.4531  163.1761 C.ar    1  UNL1        0.0061
     18 O         139.6660  141.0556  166.9752 O.3     1  UNL1       -0.4754
     19 C         139.1455  139.6825  167.2815 C.3     1  UNL1        0.2068
     20 C         138.1611  139.0301  166.3568 C.3     1  UNL1        0.0646
     21 C         138.5230  137.7548  165.6547 C.3     1  UNL1        0.0759
     22 N         139.2675  137.8004  164.3533 N.3     1  UNL1       -0.2726
     23 C         140.7038  137.3720  164.2955 C.3     1  UNL1        0.0721
     24 C         141.4483  137.4176  162.9940 C.3     1  UNL1        0.0174
     25 C         140.7563  137.8914  161.7504 C.3     1  UNL1        0.0029
     26 C         139.3200  138.3198  161.8082 C.3     1  UNL1        0.0174
     27 C         138.5755  138.2742  163.1096 C.3     1  UNL1        0.0721
     28 C         141.7274  144.6661  161.9290 C.3     1  UNL1        0.1372
     29 C         142.9071  143.8756  162.4121 C.ar    1  UNL1        0.0005
     30 C         143.3083  143.9336  163.8562 C.ar    1  UNL1       -0.0024
     31 C         144.4880  143.1431  164.3393 C.ar    1  UNL1       -0.0003
     32 C         145.2665  142.2944  163.3782 C.ar    1  UNL1       -0.0000
     33 C         144.8653  142.2363  161.9340 C.ar    1  UNL1       -0.0003
     34 C         143.6856  143.0269  161.4509 C.ar    1  UNL1       -0.0024
@<TRIPOS>BOND
     1     1     2    2
     2     2     3   ar
     3     3     4   ar
     4     4     5   ar
     5     5     6   ar
     6     6     7   ar
     7     7     8   ar
     8     8     9   ar
     9     9    10   ar
    10    10    12    1
    11    12    13   ar
    12    13    14   ar
    13    14    15   ar
    14    15    18    1
    15    18    19    1
    16    19    20    1
    17    20    21    1
    18    21    22    1
    19    22    23    1
    20    23    24    1
    21    24    25    1
    22    25    26    1
    23    26    27    1
    24    15    16   ar
    25    16    17   ar
    26    10    11   ar
    27    11    28    1
    28    28    29    1
    29    29    30   ar
    30    30    31   ar
    31    31    32   ar
    32    32    33   ar
    33    33    34   ar
    34    11     2   ar
    35    34    29   ar
    36     8     3   ar
    37    17    12   ar
    38    27    22    1
