@<TRIPOS>MOLECULE
*****
 30 34 0 0 0
SMALL
GASTEIGER

@<TRIPOS>ATOM
      1 C         142.0617  142.2410  166.7770 C.3     1  UNL1        0.0971
      2 N         141.9651  142.7063  165.3542 N.3     1  UNL1       -0.2655
      3 C         140.6259  143.0261  164.7591 C.3     1  UNL1        0.1132
      4 C         140.5293  143.4915  163.3364 C.3     1  UNL1        0.1849
      5 N         141.7718  143.6369  162.5089 N.pl3   1  UNL1       -0.1905
      6 C         143.1110  143.3171  163.1040 C.3     1  UNL1        0.1849
      7 C         143.2077  142.8518  164.5267 C.3     1  UNL1        0.1132
      8 C         141.6752  144.1023  161.0861 C.cat   1  UNL1        0.4230
      9 N         142.6005  143.7205  159.9689 N.2     1  UNL1       -0.0678
     10 C         142.1336  144.4133  158.7231 C.2     1  UNL1        0.1887
     11 C         142.6569  144.4113  157.3173 C.2     1  UNL1        0.0395
     12 C         141.9663  145.2192  156.2588 C.2     1  UNL1       -0.0010
     13 C         140.7525  146.0292  156.6061 C.2     1  UNL1       -0.0181
     14 C         140.2292  146.0312  158.0119 C.3     1  UNL1        0.0932
     15 C         140.9197  145.2233  159.0704 C.2     1  UNL1        0.1744
     16 N         140.6365  145.0310  160.5308 N.2     1  UNL1       -0.0716
     17 C         142.0169  140.7749  167.0913 C.3     1  UNL1        0.1264
     18 C         142.4749  138.4150  163.2872 C.ar    1  UNL1        0.1593
     19 C         141.3387  137.5747  162.7846 C.ar    1  UNL1        0.1357
     20 N         140.0497  137.5209  163.5499 N.ar    1  UNL1       -0.2392
     21 C         139.8970  138.3075  164.8179 C.ar    1  UNL1        0.0975
     22 C         138.6081  138.2538  165.5833 C.ar    1  UNL1        0.0255
     23 C         138.4554  139.0404  166.8513 C.ar    1  UNL1        0.0623
     24 C         139.5917  139.8808  167.3540 C.ar    1  UNL1        0.2611
     25 O         139.4390  140.6674  168.6220 O.2     1  UNL1       -0.2670
     26 N         140.8806  139.9346  166.5887 N.ar    1  UNL1       -0.2926
     27 C         141.0333  139.1479  165.3206 C.ar    1  UNL1        0.0832
     28 C         142.3222  139.2017  164.5552 C.ar    1  UNL1        0.0573
     29 C         143.8873  137.7529  161.2096 C.3     1  UNL1        0.2525
     30 O         143.7638  138.4688  162.5219 O.3     1  UNL1       -0.4698
@<TRIPOS>BOND
     1    29    30    1
     2    30    18    1
     3    18    19   ar
     4    19    20   ar
     5    20    21   ar
     6    21    22   ar
     7    22    23   ar
     8    23    24   ar
     9    24    25    2
    10    24    26   ar
    11    26    17    1
    12    17     1    1
    13     1     2    1
    14     2     3    1
    15     3     4    1
    16     4     5    1
    17     5     8    1
    18     8     9    2
    19     9    10    1
    20    10    11    2
    21    11    12    1
    22    12    13    2
    23    13    14    1
    24    14    15    1
    25    15    16    2
    26     5     6    1
    27     6     7    1
    28    26    27   ar
    29    27    28   ar
    30    28    18   ar
    31    27    21   ar
    32     7     2    1
    33    16     8    1
    34    15    10    1
@<TRIPOS>MOLECULE
*****
 30 34 0 0 0
SMALL
GASTEIGER

@<TRIPOS>ATOM
      1 C         139.9685  142.2612  166.2022 C.3     1  UNL1        0.0971
      2 N         140.0990  142.7295  164.7831 N.3     1  UNL1       -0.2655
      3 C         139.0180  142.4221  163.7896 C.3     1  UNL1        0.1132
      4 C         139.1484  142.8904  162.3706 C.3     1  UNL1        0.1849
      5 N         140.3597  143.6661  161.9451 N.pl3   1  UNL1       -0.1905
      6 C         141.4406  143.9734  162.9386 C.3     1  UNL1        0.1849
      7 C         141.3103  143.5051  164.3577 C.3     1  UNL1        0.1132
      8 C         140.4901  144.1344  160.5260 C.cat   1  UNL1        0.4230
      9 N         141.5992  144.9811  159.9754 N.2     1  UNL1       -0.0678
     10 C         141.3290  145.2083  158.5175 C.2     1  UNL1        0.1887
     11 C         142.0799  145.9670  157.4638 C.2     1  UNL1        0.0395
     12 C         141.5549  146.0194  156.0597 C.2     1  UNL1       -0.0010
     13 C         140.2788  145.3132  155.7093 C.2     1  UNL1       -0.0181
     14 C         139.5278  144.5544  156.7630 C.3     1  UNL1        0.0932
     15 C         140.0528  144.5019  158.1672 C.2     1  UNL1        0.1744
     16 N         139.5344  143.8383  159.4085 N.2     1  UNL1       -0.0716
     17 C         140.4240  140.8834  166.5821 C.3     1  UNL1        0.1264
     18 C         144.0487  139.9219  164.0948 C.ar    1  UNL1        0.1593
     19 C         143.9949  138.8102  163.0893 C.ar    1  UNL1        0.1357
     20 N         142.7328  138.0191  162.9127 N.ar    1  UNL1       -0.2392
     21 C         141.5245  138.3395  163.7418 C.ar    1  UNL1        0.0975
     22 C         140.2624  137.5484  163.5653 C.ar    1  UNL1        0.0255
     23 C         139.0542  137.8689  164.3944 C.ar    1  UNL1        0.0623
     24 C         139.1080  138.9806  165.4000 C.ar    1  UNL1        0.2611
     25 O         137.8998  139.3011  166.2291 O.2     1  UNL1       -0.2670
     26 N         140.3701  139.7717  165.5765 N.ar    1  UNL1       -0.2926
     27 C         141.5784  139.4512  164.7474 C.ar    1  UNL1        0.0832
     28 C         142.8405  140.2424  164.9239 C.ar    1  UNL1        0.0573
     29 C         145.6721  141.7797  163.2806 C.3     1  UNL1        0.2525
     30 O         145.3108  140.7130  164.2714 O.3     1  UNL1       -0.4698
@<TRIPOS>BOND
     1    29    30    1
     2    30    18    1
     3    18    19   ar
     4    19    20   ar
     5    20    21   ar
     6    21    22   ar
     7    22    23   ar
     8    23    24   ar
     9    24    25    2
    10    24    26   ar
    11    26    17    1
    12    17     1    1
    13     1     2    1
    14     2     3    1
    15     3     4    1
    16     4     5    1
    17     5     8    1
    18     8     9    2
    19     9    10    1
    20    10    11    2
    21    11    12    1
    22    12    13    2
    23    13    14    1
    24    14    15    1
    25    15    16    2
    26     5     6    1
    27     6     7    1
    28    26    27   ar
    29    27    28   ar
    30    28    18   ar
    31    27    21   ar
    32     7     2    1
    33    16     8    1
    34    15    10    1
@<TRIPOS>MOLECULE
*****
 30 34 0 0 0
SMALL
GASTEIGER

@<TRIPOS>ATOM
      1 C         143.2157  142.4294  165.9663 C.3     1  UNL1        0.0971
      2 N         142.9161  142.8957  164.5724 N.3     1  UNL1       -0.2655
      3 C         143.8045  143.9086  163.9131 C.3     1  UNL1        0.1132
      4 C         143.5049  144.3748  162.5193 C.3     1  UNL1        0.1849
      5 N         142.3170  143.8281  161.7847 N.pl3   1  UNL1       -0.1905
      6 C         141.4285  142.8152  162.4439 C.3     1  UNL1        0.1849
      7 C         141.7281  142.3489  163.8377 C.3     1  UNL1        0.1132
      8 C         142.0174  144.2943  160.3907 C.cat   1  UNL1        0.4230
      9 N         140.9246  145.2422  159.9938 N.2     1  UNL1       -0.0678
     10 C         140.9897  145.4282  158.5069 C.2     1  UNL1        0.1887
     11 C         140.1638  146.2484  157.5608 C.2     1  UNL1        0.0395
     12 C         140.4708  146.2357  156.0926 C.2     1  UNL1       -0.0010
     13 C         141.6038  145.4029  155.5705 C.2     1  UNL1       -0.0181
     14 C         142.4299  144.5827  156.5166 C.3     1  UNL1        0.0932
     15 C         142.1228  144.5953  157.9848 C.2     1  UNL1        0.1744
     16 N         142.7579  143.8946  159.1491 N.2     1  UNL1       -0.0716
     17 C         142.8003  141.0559  166.4032 C.3     1  UNL1        0.1264
     18 C         139.1479  138.6175  165.4216 C.ar    1  UNL1        0.1593
     19 C         138.0605  138.4516  166.4415 C.ar    1  UNL1        0.1357
     20 N         138.1906  139.0986  167.7885 N.ar    1  UNL1       -0.2392
     21 C         139.4081  139.9114  168.1157 C.ar    1  UNL1        0.0975
     22 C         139.5382  140.5583  169.4628 C.ar    1  UNL1        0.0255
     23 C         140.7556  141.3711  169.7900 C.ar    1  UNL1        0.0623
     24 C         141.8431  141.5370  168.7701 C.ar    1  UNL1        0.2611
     25 O         143.0605  142.3498  169.0973 O.2     1  UNL1       -0.2670
     26 N         141.7130  140.8901  167.4231 N.ar    1  UNL1       -0.2926
     27 C         140.4954  140.0772  167.0959 C.ar    1  UNL1        0.0832
     28 C         140.3653  139.4303  165.7488 C.ar    1  UNL1        0.0573
     29 C         140.2421  137.4984  163.3479 C.3     1  UNL1        0.2525
     30 O         139.0178  137.9705  164.0746 O.3     1  UNL1       -0.4698
@<TRIPOS>BOND
     1    29    30    1
     2    30    18    1
     3    18    19   ar
     4    19    20   ar
     5    20    21   ar
     6    21    22   ar
     7    22    23   ar
     8    23    24   ar
     9    24    25    2
    10    24    26   ar
    11    26    17    1
    12    17     1    1
    13     1     2    1
    14     2     3    1
    15     3     4    1
    16     4     5    1
    17     5     8    1
    18     8     9    2
    19     9    10    1
    20    10    11    2
    21    11    12    1
    22    12    13    2
    23    13    14    1
    24    14    15    1
    25    15    16    2
    26     5     6    1
    27     6     7    1
    28    26    27   ar
    29    27    28   ar
    30    28    18   ar
    31    27    21   ar
    32     7     2    1
    33    16     8    1
    34    15    10    1
@<TRIPOS>MOLECULE
*****
 30 34 0 0 0
SMALL
GASTEIGER

@<TRIPOS>ATOM
      1 C         142.5490  142.2556  165.5318 C.3     1  UNL1        0.0971
      2 N         142.3145  142.8049  164.1558 N.3     1  UNL1       -0.2655
      3 C         140.9452  142.7422  163.5465 C.3     1  UNL1        0.1132
      4 C         140.7107  143.2914  162.1706 C.3     1  UNL1        0.1849
      5 N         141.8455  143.9034  161.4039 N.pl3   1  UNL1       -0.1905
      6 C         143.2147  143.9662  162.0132 C.3     1  UNL1        0.1849
      7 C         143.4492  143.4169  163.3892 C.3     1  UNL1        0.1132
      8 C         141.6110  144.4528  160.0279 C.cat   1  UNL1        0.4230
      9 N         140.4763  145.3430  159.6155 N.2     1  UNL1       -0.0678
     10 C         140.6340  145.6488  158.1555 C.2     1  UNL1        0.1887
     11 C         139.8149  146.4751  157.2089 C.2     1  UNL1        0.0395
     12 C         140.2279  146.6002  155.7723 C.2     1  UNL1       -0.0010
     13 C         141.4600  145.8989  155.2823 C.2     1  UNL1       -0.0181
     14 C         142.2792  145.0725  156.2290 C.3     1  UNL1        0.0932
     15 C         141.8662  144.9474  157.6656 C.2     1  UNL1        0.1744
     16 N         142.4700  144.2083  158.8228 N.2     1  UNL1       -0.0716
     17 C         142.9837  140.8306  165.7065 C.3     1  UNL1        0.1264
     18 C         139.2771  138.4719  164.7334 C.ar    1  UNL1        0.1593
     19 C         139.2697  137.5364  163.5609 C.ar    1  UNL1        0.1357
     20 N         140.4978  137.3872  162.7127 N.ar    1  UNL1       -0.2392
     21 C         141.7333  138.1734  163.0371 C.ar    1  UNL1        0.0975
     22 C         142.9615  138.0242  162.1889 C.ar    1  UNL1        0.0255
     23 C         144.1970  138.8104  162.5132 C.ar    1  UNL1        0.0623
     24 C         144.2045  139.7459  163.6858 C.ar    1  UNL1        0.2611
     25 O         145.4400  140.5321  164.0101 O.2     1  UNL1       -0.2670
     26 N         142.9763  139.8952  164.5340 N.ar    1  UNL1       -0.2926
     27 C         141.7408  139.1089  164.2096 C.ar    1  UNL1        0.0832
     28 C         140.5126  139.2581  165.0577 C.ar    1  UNL1        0.0573
     29 C         138.1790  138.9640  167.0360 C.3     1  UNL1        0.2525
     30 O         138.0489  138.6211  165.5816 O.3     1  UNL1       -0.4698
@<TRIPOS>BOND
     1    29    30    1
     2    30    18    1
     3    18    19   ar
     4    19    20   ar
     5    20    21   ar
     6    21    22   ar
     7    22    23   ar
     8    23    24   ar
     9    24    25    2
    10    24    26   ar
    11    26    17    1
    12    17     1    1
    13     1     2    1
    14     2     3    1
    15     3     4    1
    16     4     5    1
    17     5     8    1
    18     8     9    2
    19     9    10    1
    20    10    11    2
    21    11    12    1
    22    12    13    2
    23    13    14    1
    24    14    15    1
    25    15    16    2
    26     5     6    1
    27     6     7    1
    28    26    27   ar
    29    27    28   ar
    30    28    18   ar
    31    27    21   ar
    32     7     2    1
    33    16     8    1
    34    15    10    1
@<TRIPOS>MOLECULE
*****
 30 34 0 0 0
SMALL
GASTEIGER

@<TRIPOS>ATOM
      1 C         141.7485  143.0822  165.1420 C.3     1  UNL1        0.0971
      2 N         141.6039  143.5455  163.7226 N.3     1  UNL1       -0.2655
      3 C         140.6648  144.6674  163.3918 C.3     1  UNL1        0.1132
      4 C         140.5202  145.1307  161.9725 C.3     1  UNL1        0.1849
      5 N         141.3146  144.4720  160.8840 N.pl3   1  UNL1       -0.1905
      6 C         142.2537  143.3501  161.2148 C.3     1  UNL1        0.1849
      7 C         142.3984  142.8868  162.6340 C.3     1  UNL1        0.1132
      8 C         141.1700  144.9353  159.4646 C.cat   1  UNL1        0.4230
      9 N         140.0321  145.7413  158.9118 N.2     1  UNL1       -0.0678
     10 C         140.2967  145.9780  157.4545 C.2     1  UNL1        0.1887
     11 C         139.5207  146.7090  156.3993 C.2     1  UNL1        0.0395
     12 C         140.0462  146.7804  154.9961 C.2     1  UNL1       -0.0010
     13 C         141.3476  146.1207  154.6482 C.2     1  UNL1       -0.0181
     14 C         142.1236  145.3896  155.7034 C.3     1  UNL1        0.0932
     15 C         141.5982  145.3182  157.1065 C.2     1  UNL1        0.1744
     16 N         142.1379  144.6738  158.3489 N.2     1  UNL1       -0.0716
     17 C         141.9549  141.6264  165.4384 C.3     1  UNL1        0.1264
     18 C         140.7548  141.4239  169.7706 C.ar    1  UNL1        0.1593
     19 C         139.5933  140.5714  170.1880 C.ar    1  UNL1        0.1357
     20 N         138.8318  139.7865  169.1613 N.ar    1  UNL1       -0.2392
     21 C         139.2319  139.8540  167.7173 C.ar    1  UNL1        0.0975
     22 C         138.4704  139.0690  166.6906 C.ar    1  UNL1        0.0255
     23 C         138.8705  139.1365  165.2465 C.ar    1  UNL1        0.0623
     24 C         140.0320  139.9890  164.8291 C.ar    1  UNL1        0.2611
     25 O         140.4321  140.0565  163.3850 O.2     1  UNL1       -0.2670
     26 N         140.7935  140.7739  165.8558 N.ar    1  UNL1       -0.2926
     27 C         140.3934  140.7064  167.2999 C.ar    1  UNL1        0.0832
     28 C         141.1548  141.4914  168.3266 C.ar    1  UNL1        0.0573
     29 C         142.8083  142.8741  170.4261 C.3     1  UNL1        0.2525
     30 O         141.5162  142.2088  170.7973 O.3     1  UNL1       -0.4698
@<TRIPOS>BOND
     1    29    30    1
     2    30    18    1
     3    18    19   ar
     4    19    20   ar
     5    20    21   ar
     6    21    22   ar
     7    22    23   ar
     8    23    24   ar
     9    24    25    2
    10    24    26   ar
    11    26    17    1
    12    17     1    1
    13     1     2    1
    14     2     3    1
    15     3     4    1
    16     4     5    1
    17     5     8    1
    18     8     9    2
    19     9    10    1
    20    10    11    2
    21    11    12    1
    22    12    13    2
    23    13    14    1
    24    14    15    1
    25    15    16    2
    26     5     6    1
    27     6     7    1
    28    26    27   ar
    29    27    28   ar
    30    28    18   ar
    31    27    21   ar
    32     7     2    1
    33    16     8    1
    34    15    10    1
@<TRIPOS>MOLECULE
*****
 30 34 0 0 0
SMALL
GASTEIGER

@<TRIPOS>ATOM
      1 C         140.4542  142.7101  166.6177 C.3     1  UNL1        0.0971
      2 N         140.5082  143.0839  165.1659 N.3     1  UNL1       -0.2655
      3 C         139.2708  143.5673  164.4694 C.3     1  UNL1        0.1132
      4 C         139.3247  143.9410  163.0178 C.3     1  UNL1        0.1849
      5 N         140.6161  143.8314  162.2626 N.pl3   1  UNL1       -0.1905
      6 C         141.8535  143.3480  162.9591 C.3     1  UNL1        0.1849
      7 C         141.7995  142.9742  164.4108 C.3     1  UNL1        0.1132
      8 C         140.6701  144.2052  160.8109 C.cat   1  UNL1        0.4230
      9 N         141.7563  144.9961  160.1439 N.2     1  UNL1       -0.0678
     10 C         141.4049  145.1334  158.6921 C.2     1  UNL1        0.1887
     11 C         142.1034  145.8101  157.5501 C.2     1  UNL1        0.0395
     12 C         141.4985  145.7808  156.1778 C.2     1  UNL1       -0.0010
     13 C         140.1953  145.0748  155.9475 C.2     1  UNL1       -0.0181
     14 C         139.4968  144.3981  157.0895 C.3     1  UNL1        0.0932
     15 C         140.1016  144.4274  158.4619 C.2     1  UNL1        0.1744
     16 N         139.6475  143.8537  159.7713 N.2     1  UNL1       -0.0716
     17 C         140.1782  141.2908  167.0169 C.3     1  UNL1        0.1264
     18 C         139.0779  138.8978  163.3682 C.ar    1  UNL1        0.1593
     19 C         139.9790  137.7965  162.8938 C.ar    1  UNL1        0.1357
     20 N         141.2469  137.4929  163.6356 N.ar    1  UNL1       -0.2392
     21 C         141.6137  138.2905  164.8518 C.ar    1  UNL1        0.0975
     22 C         142.8816  137.9869  165.5935 C.ar    1  UNL1        0.0255
     23 C         143.2484  138.7845  166.8097 C.ar    1  UNL1        0.0623
     24 C         142.3473  139.8859  167.2842 C.ar    1  UNL1        0.2611
     25 O         142.7140  140.6835  168.5004 O.2     1  UNL1       -0.2670
     26 N         141.0793  140.1895  166.5425 N.ar    1  UNL1       -0.2926
     27 C         140.7126  139.3918  165.3262 C.ar    1  UNL1        0.0832
     28 C         139.4447  139.6954  164.5844 C.ar    1  UNL1        0.0573
     29 C         137.8596  139.9714  161.3401 C.3     1  UNL1        0.2525
     30 O         137.8100  139.2014  162.6264 O.3     1  UNL1       -0.4698
@<TRIPOS>BOND
     1    29    30    1
     2    30    18    1
     3    18    19   ar
     4    19    20   ar
     5    20    21   ar
     6    21    22   ar
     7    22    23   ar
     8    23    24   ar
     9    24    25    2
    10    24    26   ar
    11    26    17    1
    12    17     1    1
    13     1     2    1
    14     2     3    1
    15     3     4    1
    16     4     5    1
    17     5     8    1
    18     8     9    2
    19     9    10    1
    20    10    11    2
    21    11    12    1
    22    12    13    2
    23    13    14    1
    24    14    15    1
    25    15    16    2
    26     5     6    1
    27     6     7    1
    28    26    27   ar
    29    27    28   ar
    30    28    18   ar
    31    27    21   ar
    32     7     2    1
    33    16     8    1
    34    15    10    1
@<TRIPOS>MOLECULE
*****
 30 34 0 0 0
SMALL
GASTEIGER

@<TRIPOS>ATOM
      1 C         143.7623  138.4678  160.5147 C.3     1  UNL1        0.0971
      2 N         143.5522  138.8834  161.9406 N.3     1  UNL1       -0.2655
      3 C         142.6363  138.0909  162.8256 C.3     1  UNL1        0.1132
      4 C         142.4262  138.5065  164.2514 C.3     1  UNL1        0.1849
      5 N         143.1319  139.7145  164.7923 N.pl3   1  UNL1       -0.1905
      6 C         144.0478  140.5070  163.9073 C.3     1  UNL1        0.1849
      7 C         144.2579  140.0914  162.4815 C.3     1  UNL1        0.1132
      8 C         142.9218  140.1301  166.2182 C.cat   1  UNL1        0.4230
      9 N         142.8486  141.5404  166.7239 N.2     1  UNL1       -0.0678
     10 C         142.6295  141.4904  168.2070 C.2     1  UNL1        0.1887
     11 C         142.4787  142.5709  169.2363 C.2     1  UNL1        0.0395
     12 C         142.2656  142.2102  170.6766 C.2     1  UNL1       -0.0010
     13 C         142.2035  140.7689  171.0876 C.2     1  UNL1       -0.0181
     14 C         142.3544  139.6883  170.0582 C.3     1  UNL1        0.0932
     15 C         142.5674  140.0490  168.6179 C.2     1  UNL1        0.1744
     16 N         142.7480  139.2084  167.3888 N.2     1  UNL1       -0.0716
     17 C         142.6859  137.7202  159.7850 C.3     1  UNL1        0.1264
     18 C         138.5757  139.0068  161.0892 C.ar    1  UNL1        0.1593
     19 C         137.6772  139.7308  160.1309 C.ar    1  UNL1        0.1357
     20 N         138.1487  140.0261  158.7379 N.ar    1  UNL1       -0.2392
     21 C         139.5188  139.5972  158.3032 C.ar    1  UNL1        0.0975
     22 C         139.9903  139.8924  156.9101 C.ar    1  UNL1        0.0255
     23 C         141.3603  139.4636  156.4754 C.ar    1  UNL1        0.0623
     24 C         142.2589  138.7395  157.4337 C.ar    1  UNL1        0.2611
     25 O         143.6289  138.3106  156.9990 O.2     1  UNL1       -0.2670
     26 N         141.7874  138.4442  158.8267 N.ar    1  UNL1       -0.2926
     27 C         140.4173  138.8731  159.2614 C.ar    1  UNL1        0.0832
     28 C         139.9457  138.5779  160.6545 C.ar    1  UNL1        0.0573
     29 C         138.8631  137.7446  163.3418 C.3     1  UNL1        0.2525
     30 O         138.1042  138.7115  162.4822 O.3     1  UNL1       -0.4698
@<TRIPOS>BOND
     1    29    30    1
     2    30    18    1
     3    18    19   ar
     4    19    20   ar
     5    20    21   ar
     6    21    22   ar
     7    22    23   ar
     8    23    24   ar
     9    24    25    2
    10    24    26   ar
    11    26    17    1
    12    17     1    1
    13     1     2    1
    14     2     3    1
    15     3     4    1
    16     4     5    1
    17     5     8    1
    18     8     9    2
    19     9    10    1
    20    10    11    2
    21    11    12    1
    22    12    13    2
    23    13    14    1
    24    14    15    1
    25    15    16    2
    26     5     6    1
    27     6     7    1
    28    26    27   ar
    29    27    28   ar
    30    28    18   ar
    31    27    21   ar
    32     7     2    1
    33    16     8    1
    34    15    10    1
@<TRIPOS>MOLECULE
*****
 30 34 0 0 0
SMALL
GASTEIGER

@<TRIPOS>ATOM
      1 C         142.1786  143.2720  164.6742 C.3     1  UNL1        0.0971
      2 N         141.9379  143.7281  163.2656 N.3     1  UNL1       -0.2655
      3 C         142.7196  143.1229  162.1374 C.3     1  UNL1        0.1132
      4 C         142.4790  143.5789  160.7289 C.3     1  UNL1        0.1849
      5 N         141.4567  144.6401  160.4484 N.pl3   1  UNL1       -0.1905
      6 C         140.6750  145.2453  161.5766 C.3     1  UNL1        0.1849
      7 C         140.9156  144.7893  162.9851 C.3     1  UNL1        0.1132
      8 C         141.2161  145.0962  159.0398 C.cat   1  UNL1        0.4230
      9 N         140.0746  145.9498  158.5723 N.2     1  UNL1       -0.0678
     10 C         140.2277  146.1599  157.0950 C.2     1  UNL1        0.1887
     11 C         139.4012  146.9167  156.0979 C.2     1  UNL1        0.0395
     12 C         139.8109  146.9499  154.6553 C.2     1  UNL1       -0.0010
     13 C         141.0469  146.2263  154.2098 C.2     1  UNL1       -0.0181
     14 C         141.8734  145.4694  155.2069 C.3     1  UNL1        0.0932
     15 C         141.4638  145.4363  156.6495 C.2     1  UNL1        0.1744
     16 N         142.0746  144.7789  157.8515 N.2     1  UNL1       -0.0716
     17 C         141.3267  142.1894  165.2678 C.3     1  UNL1        0.1264
     18 C         141.6826  141.8159  169.7382 C.ar    1  UNL1        0.1593
     19 C         142.3249  140.6016  170.3405 C.ar    1  UNL1        0.1357
     20 N         142.8486  139.5118  169.4528 N.ar    1  UNL1       -0.2392
     21 C         142.7300  139.6363  167.9627 C.ar    1  UNL1        0.0975
     22 C         143.2537  138.5465  167.0750 C.ar    1  UNL1        0.0255
     23 C         143.1351  138.6709  165.5849 C.ar    1  UNL1        0.0623
     24 C         142.4927  139.8853  164.9825 C.ar    1  UNL1        0.2611
     25 O         142.3741  140.0098  163.4924 O.2     1  UNL1       -0.2670
     26 N         141.9690  140.9751  165.8702 N.ar    1  UNL1       -0.2926
     27 C         142.0877  140.8506  167.3604 C.ar    1  UNL1        0.0832
     28 C         141.5640  141.9404  168.2481 C.ar    1  UNL1        0.0573
     29 C         140.5176  144.1206  170.0235 C.3     1  UNL1        0.2525
     30 O         141.1589  142.9057  170.6259 O.3     1  UNL1       -0.4698
@<TRIPOS>BOND
     1    29    30    1
     2    30    18    1
     3    18    19   ar
     4    19    20   ar
     5    20    21   ar
     6    21    22   ar
     7    22    23   ar
     8    23    24   ar
     9    24    25    2
    10    24    26   ar
    11    26    17    1
    12    17     1    1
    13     1     2    1
    14     2     3    1
    15     3     4    1
    16     4     5    1
    17     5     8    1
    18     8     9    2
    19     9    10    1
    20    10    11    2
    21    11    12    1
    22    12    13    2
    23    13    14    1
    24    14    15    1
    25    15    16    2
    26     5     6    1
    27     6     7    1
    28    26    27   ar
    29    27    28   ar
    30    28    18   ar
    31    27    21   ar
    32     7     2    1
    33    16     8    1
    34    15    10    1
@<TRIPOS>MOLECULE
*****
 30 34 0 0 0
SMALL
GASTEIGER

@<TRIPOS>ATOM
      1 C         139.1364  139.4337  159.8275 C.3     1  UNL1        0.0971
      2 N         139.3987  139.5265  161.3015 N.3     1  UNL1       -0.2655
      3 C         140.7310  139.1142  161.8536 C.3     1  UNL1        0.1132
      4 C         140.9933  139.2070  163.3275 C.3     1  UNL1        0.1849
      5 N         139.9233  139.7122  164.2493 N.pl3   1  UNL1       -0.1905
      6 C         138.5910  140.1245  163.6972 C.3     1  UNL1        0.1849
      7 C         138.3286  140.0317  162.2233 C.3     1  UNL1        0.1132
      8 C         140.1856  139.8051  165.7234 C.cat   1  UNL1        0.4230
      9 N         141.5056  139.5814  166.3998 N.2     1  UNL1       -0.0678
     10 C         141.3098  139.7760  167.8742 C.2     1  UNL1        0.1887
     11 C         142.2575  139.6844  169.0333 C.2     1  UNL1        0.0395
     12 C         141.7641  139.9368  170.4271 C.2     1  UNL1       -0.0010
     13 C         140.3231  140.2807  170.6619 C.2     1  UNL1       -0.0181
     14 C         139.3754  140.3723  169.5028 C.3     1  UNL1        0.0932
     15 C         139.8687  140.1199  168.1089 C.2     1  UNL1        0.1744
     16 N         139.1739  140.1379  166.7797 N.2     1  UNL1       -0.0716
     17 C         139.4708  140.5896  158.9319 C.3     1  UNL1        0.1264
     18 C         139.7165  144.3551  161.3835 C.ar    1  UNL1        0.1593
     19 C         141.0282  145.0668  161.5356 C.ar    1  UNL1        0.1357
     20 N         142.2579  144.5232  160.8705 N.ar    1  UNL1       -0.2392
     21 C         142.1760  143.2681  160.0533 C.ar    1  UNL1        0.0975
     22 C         143.4057  142.7245  159.3882 C.ar    1  UNL1        0.0255
     23 C         143.3238  141.4694  158.5710 C.ar    1  UNL1        0.0623
     24 C         142.0121  140.7577  158.4189 C.ar    1  UNL1        0.2611
     25 O         141.9302  139.5025  157.6017 O.2     1  UNL1       -0.2670
     26 N         140.7824  141.3012  159.0840 N.ar    1  UNL1       -0.2926
     27 C         140.8644  142.5565  159.9012 C.ar    1  UNL1        0.0832
     28 C         139.6346  143.1000  160.5663 C.ar    1  UNL1        0.0573
     29 C         137.7634  144.0770  163.0739 C.3     1  UNL1        0.2525
     30 O         138.4868  144.8987  162.0486 O.3     1  UNL1       -0.4698
@<TRIPOS>BOND
     1    29    30    1
     2    30    18    1
     3    18    19   ar
     4    19    20   ar
     5    20    21   ar
     6    21    22   ar
     7    22    23   ar
     8    23    24   ar
     9    24    25    2
    10    24    26   ar
    11    26    17    1
    12    17     1    1
    13     1     2    1
    14     2     3    1
    15     3     4    1
    16     4     5    1
    17     5     8    1
    18     8     9    2
    19     9    10    1
    20    10    11    2
    21    11    12    1
    22    12    13    2
    23    13    14    1
    24    14    15    1
    25    15    16    2
    26     5     6    1
    27     6     7    1
    28    26    27   ar
    29    27    28   ar
    30    28    18   ar
    31    27    21   ar
    32     7     2    1
    33    16     8    1
    34    15    10    1
