@<TRIPOS>MOLECULE
*****
 27 29 0 0 0
SMALL
GASTEIGER

@<TRIPOS>ATOM
      1 N         141.8268  139.6745  164.2564 N.am    1  UNL1       -0.2681
      2 C         140.9521  139.7612  163.0410 C.2     1  UNL1        0.3078
      3 O         139.6158  140.4376  163.1253 O.2     1  UNL1       -0.2522
      4 N         141.4135  139.1716  161.7412 N.am    1  UNL1       -0.2605
      5 C         140.5387  139.2583  160.5257 C.3     1  UNL1        0.1164
      6 C         141.0001  138.6687  159.2260 C.3     1  UNL1        0.1137
      7 N         142.3364  137.9923  159.1416 N.pl3   1  UNL1       -0.2891
      8 C         143.2111  137.9056  160.3570 C.3     1  UNL1        0.1137
      9 C         142.7497  138.4952  161.6568 C.3     1  UNL1        0.1164
     10 H         142.7038  139.2306  164.2010 H       1  UNL1        0.1564
     11 C         142.7978  137.4027  157.8418 C.ar    1  UNL1        0.1424
     12 N         142.8504  135.9134  157.6706 N.ar    1  UNL1       -0.2283
     13 C         143.3118  135.3238  156.3708 C.ar    1  UNL1        0.1004
     14 C         143.7207  136.2235  155.2423 C.ar    1  UNL1        0.0216
     15 C         143.6682  137.7127  155.4136 C.ar    1  UNL1        0.0158
     16 C         143.2068  138.3023  156.7134 C.ar    1  UNL1        0.0892
     17 CL        143.1542  139.7915  156.8847 Cl      1  UNL1       -0.0793
     18 C         140.4425  141.4433  168.1557 C.ar    1  UNL1       -0.0227
     19 C         141.5008  142.1378  167.3508 C.ar    1  UNL1       -0.0030
     20 C         141.9622  141.5482  166.0511 C.ar    1  UNL1        0.0144
     21 C         141.3654  140.2641  165.5561 C.ar    1  UNL1        0.0516
     22 C         140.3072  139.5697  166.3610 C.ar    1  UNL1        0.0144
     23 C         139.8458  140.1593  167.6608 C.ar    1  UNL1       -0.0030
     24 C         140.6521  143.3282  169.1061 C.3     1  UNL1        0.0044
     25 C         139.9811  142.0330  169.4555 C.3     1  UNL1        0.0189
     26 C         139.3101  140.7377  169.8049 C.3     1  UNL1        0.0044
     27 C         139.5197  142.6226  170.7553 C.3     1  UNL1        0.0044
@<TRIPOS>BOND
     1    24    25    1
     2    25    26    1
     3    25    27    1
     4    25    18    1
     5    18    19   ar
     6    19    20   ar
     7    20    21   ar
     8    21     1    1
     9     1     2   am
    10     2     3    2
    11     2     4   am
    12     4     5    1
    13     5     6    1
    14     6     7    1
    15     7    11    1
    16    11    12   ar
    17    12    13   ar
    18    13    14   ar
    19    14    15   ar
    20    15    16   ar
    21    16    17    1
    22     7     8    1
    23     8     9    1
    24    21    22   ar
    25    22    23   ar
    26    23    18   ar
    27     9     4    1
    28    16    11   ar
    29     1    10    1
@<TRIPOS>MOLECULE
*****
 27 29 0 0 0
SMALL
GASTEIGER

@<TRIPOS>ATOM
      1 N         142.4675  137.2612  157.9297 N.am    1  UNL1       -0.2681
      2 C         143.1893  138.5521  157.6794 C.2     1  UNL1        0.3078
      3 O         143.9275  138.7610  156.3905 O.2     1  UNL1       -0.2522
      4 N         143.1728  139.6342  158.7181 N.am    1  UNL1       -0.2605
      5 C         143.8946  140.9251  158.4679 C.3     1  UNL1        0.1164
      6 C         143.8782  142.0071  159.5066 C.3     1  UNL1        0.1137
      7 N         143.1399  141.7982  160.7955 N.pl3   1  UNL1       -0.2891
      8 C         142.4181  140.5074  161.0458 C.3     1  UNL1        0.1137
      9 C         142.4346  139.4253  160.0071 C.3     1  UNL1        0.1164
     10 H         141.9830  137.1241  158.7756 H       1  UNL1        0.1564
     11 C         143.1234  142.8803  161.8342 C.ar    1  UNL1        0.1424
     12 N         142.0154  143.8914  161.8465 N.ar    1  UNL1       -0.2283
     13 C         141.9990  144.9734  162.8852 C.ar    1  UNL1        0.1004
     14 C         143.0905  145.0444  163.9117 C.ar    1  UNL1        0.0216
     15 C         144.1984  144.0333  163.8994 C.ar    1  UNL1        0.0158
     16 C         144.2149  142.9513  162.8607 C.ar    1  UNL1        0.0892
     17 CL        145.3228  141.9402  162.8484 Cl      1  UNL1       -0.0793
     18 C         142.5169  134.0151  154.8136 C.ar    1  UNL1       -0.0227
     19 C         143.5683  134.0442  155.8830 C.ar    1  UNL1       -0.0030
     20 C         143.5518  135.1263  156.9217 C.ar    1  UNL1        0.0144
     21 C         142.4840  136.1792  156.8910 C.ar    1  UNL1        0.0516
     22 C         141.4326  136.1500  155.8216 C.ar    1  UNL1        0.0144
     23 C         141.4490  135.0680  154.7829 C.ar    1  UNL1       -0.0030
     24 C         143.3083  132.0498  154.7072 C.3     1  UNL1        0.0044
     25 C         142.5333  132.9330  153.7749 C.3     1  UNL1        0.0189
     26 C         141.7584  133.8163  152.8425 C.3     1  UNL1        0.0044
     27 C         142.5498  131.8510  152.7362 C.3     1  UNL1        0.0044
@<TRIPOS>BOND
     1    24    25    1
     2    25    26    1
     3    25    27    1
     4    25    18    1
     5    18    19   ar
     6    19    20   ar
     7    20    21   ar
     8    21     1    1
     9     1     2   am
    10     2     3    2
    11     2     4   am
    12     4     5    1
    13     5     6    1
    14     6     7    1
    15     7    11    1
    16    11    12   ar
    17    12    13   ar
    18    13    14   ar
    19    14    15   ar
    20    15    16   ar
    21    16    17    1
    22     7     8    1
    23     8     9    1
    24    21    22   ar
    25    22    23   ar
    26    23    18   ar
    27     9     4    1
    28    16    11   ar
    29     1    10    1
@<TRIPOS>MOLECULE
*****
 27 29 0 0 0
SMALL
GASTEIGER

@<TRIPOS>ATOM
      1 N         141.2228  143.2573  163.4744 N.am    1  UNL1       -0.2681
      2 C         140.4231  142.7219  162.3238 C.2     1  UNL1        0.3078
      3 O         139.6642  141.4365  162.4716 O.2     1  UNL1       -0.2522
      4 N         140.3824  143.4719  161.0254 N.am    1  UNL1       -0.2605
      5 C         139.5827  142.9365  159.8747 C.3     1  UNL1        0.1164
      6 C         139.5419  143.6865  158.5763 C.3     1  UNL1        0.1137
      7 N         140.3009  144.9719  158.4285 N.pl3   1  UNL1       -0.2891
      8 C         141.1005  145.5073  159.5791 C.3     1  UNL1        0.1137
      9 C         141.1413  144.7573  160.8775 C.3     1  UNL1        0.1164
     10 H         141.7209  144.1010  163.3774 H       1  UNL1        0.1564
     11 C         140.2601  145.7219  157.1301 C.ar    1  UNL1        0.1424
     12 N         139.2616  146.8235  156.9314 N.ar    1  UNL1       -0.2283
     13 C         139.2208  147.5735  155.6329 C.ar    1  UNL1        0.1004
     14 C         140.1786  147.2218  154.5333 C.ar    1  UNL1        0.0216
     15 C         141.1770  146.1202  154.7321 C.ar    1  UNL1        0.0158
     16 C         141.2178  145.3703  156.0305 C.ar    1  UNL1        0.0892
     17 CL        142.2162  144.2687  156.2294 Cl      1  UNL1       -0.0793
     18 C         141.3450  141.0074  167.3696 C.ar    1  UNL1       -0.0227
     19 C         142.2994  140.6525  166.2682 C.ar    1  UNL1       -0.0030
     20 C         142.2586  141.4024  164.9698 C.ar    1  UNL1        0.0144
     21 C         141.2635  142.5073  164.7728 C.ar    1  UNL1        0.0516
     22 C         140.3092  142.8623  165.8742 C.ar    1  UNL1        0.0144
     23 C         140.3499  142.1123  167.1726 C.ar    1  UNL1       -0.0030
     24 C         142.5999  139.5117  168.1992 C.3     1  UNL1        0.0044
     25 C         141.3858  140.2574  168.6680 C.3     1  UNL1        0.0189
     26 C         140.1717  141.0031  169.1368 C.3     1  UNL1        0.0044
     27 C         141.4265  139.5074  169.9664 C.3     1  UNL1        0.0044
@<TRIPOS>BOND
     1    24    25    1
     2    25    26    1
     3    25    27    1
     4    25    18    1
     5    18    19   ar
     6    19    20   ar
     7    20    21   ar
     8    21     1    1
     9     1     2   am
    10     2     3    2
    11     2     4   am
    12     4     5    1
    13     5     6    1
    14     6     7    1
    15     7    11    1
    16    11    12   ar
    17    12    13   ar
    18    13    14   ar
    19    14    15   ar
    20    15    16   ar
    21    16    17    1
    22     7     8    1
    23     8     9    1
    24    21    22   ar
    25    22    23   ar
    26    23    18   ar
    27     9     4    1
    28    16    11   ar
    29     1    10    1
@<TRIPOS>MOLECULE
*****
 27 29 0 0 0
SMALL
GASTEIGER

@<TRIPOS>ATOM
      1 N         140.8386  140.1333  163.8832 N.am    1  UNL1       -0.2681
      2 C         141.4357  140.6969  162.6279 C.2     1  UNL1        0.3078
      3 O         142.3142  141.9110  162.6946 O.2     1  UNL1       -0.2522
      4 N         141.1544  140.0465  161.3058 N.am    1  UNL1       -0.2605
      5 C         141.7515  140.6102  160.0505 C.3     1  UNL1        0.1164
      6 C         141.4701  139.9598  158.7285 C.3     1  UNL1        0.1137
      7 N         140.5917  138.7457  158.6617 N.pl3   1  UNL1       -0.2891
      8 C         139.9946  138.1821  159.9170 C.3     1  UNL1        0.1137
      9 C         140.2759  138.8325  161.2391 C.3     1  UNL1        0.1164
     10 H         140.2621  139.3365  163.8394 H       1  UNL1        0.1564
     11 C         140.3103  138.0953  157.3397 C.ar    1  UNL1        0.1424
     12 N         139.0276  138.3863  156.6185 N.ar    1  UNL1       -0.2283
     13 C         138.7463  137.7359  155.2965 C.ar    1  UNL1        0.1004
     14 C         139.7477  136.7944  154.6956 C.ar    1  UNL1        0.0216
     15 C         141.0303  136.5034  155.4168 C.ar    1  UNL1        0.0158
     16 C         141.3116  137.1539  156.7388 C.ar    1  UNL1        0.0892
     17 CL        142.5943  136.8629  157.4600 Cl      1  UNL1       -0.0793
     18 C         141.6826  142.0846  167.8493 C.ar    1  UNL1       -0.0227
     19 C         142.6144  141.0374  167.3152 C.ar    1  UNL1       -0.0030
     20 C         142.3331  140.3870  165.9932 C.ar    1  UNL1        0.0144
     21 C         141.1200  140.7837  165.2052 C.ar    1  UNL1        0.0516
     22 C         140.1882  141.8309  165.7393 C.ar    1  UNL1        0.0144
     23 C         140.4695  142.4813  167.0613 C.ar    1  UNL1       -0.0030
     24 C         140.5575  143.2544  169.2151 C.3     1  UNL1        0.0044
     25 C         141.9640  142.7350  169.1714 C.3     1  UNL1        0.0189
     26 C         143.3705  142.2155  169.1276 C.3     1  UNL1        0.0044
     27 C         142.2453  143.3854  170.4934 C.3     1  UNL1        0.0044
@<TRIPOS>BOND
     1    24    25    1
     2    25    26    1
     3    25    27    1
     4    25    18    1
     5    18    19   ar
     6    19    20   ar
     7    20    21   ar
     8    21     1    1
     9     1     2   am
    10     2     3    2
    11     2     4   am
    12     4     5    1
    13     5     6    1
    14     6     7    1
    15     7    11    1
    16    11    12   ar
    17    12    13   ar
    18    13    14   ar
    19    14    15   ar
    20    15    16   ar
    21    16    17    1
    22     7     8    1
    23     8     9    1
    24    21    22   ar
    25    22    23   ar
    26    23    18   ar
    27     9     4    1
    28    16    11   ar
    29     1    10    1
@<TRIPOS>MOLECULE
*****
 27 29 0 0 0
SMALL
GASTEIGER

@<TRIPOS>ATOM
      1 N         142.2435  140.6008  164.1951 N.am    1  UNL1       -0.2681
      2 C         141.8370  141.3847  162.9825 C.2     1  UNL1        0.3078
      3 O         140.9017  142.5492  163.1210 O.2     1  UNL1       -0.2522
      4 N         142.3659  141.0040  161.6314 N.am    1  UNL1       -0.2605
      5 C         141.9594  141.7879  160.4188 C.3     1  UNL1        0.1164
      6 C         142.4882  141.4073  159.0677 C.3     1  UNL1        0.1137
      7 N         143.4235  140.2427  158.9293 N.pl3   1  UNL1       -0.2891
      8 C         143.8300  139.4589  160.1418 C.3     1  UNL1        0.1137
      9 C         143.3012  139.8396  161.4929 C.3     1  UNL1        0.1164
     10 H         142.8574  139.8365  164.1042 H       1  UNL1        0.1564
     11 C         143.9524  139.8621  157.5782 C.ar    1  UNL1        0.1424
     12 N         143.4535  138.6206  156.9000 N.ar    1  UNL1       -0.2283
     13 C         143.9823  138.2400  155.5489 C.ar    1  UNL1        0.1004
     14 C         145.0100  139.1008  154.8760 C.ar    1  UNL1        0.0216
     15 C         145.5089  140.3423  155.5541 C.ar    1  UNL1        0.0158
     16 C         144.9800  140.7229  156.9052 C.ar    1  UNL1        0.0892
     17 CL        145.4789  141.9643  157.5834 Cl      1  UNL1       -0.0793
     18 C         140.6570  141.7427  168.2484 C.ar    1  UNL1       -0.0227
     19 C         142.0322  142.1738  167.8326 C.ar    1  UNL1       -0.0030
     20 C         142.5610  141.7931  166.4815 C.ar    1  UNL1        0.0144
     21 C         141.7147  140.9815  165.5462 C.ar    1  UNL1        0.0516
     22 C         140.3395  140.5504  165.9620 C.ar    1  UNL1        0.0144
     23 C         139.8106  140.9311  167.3131 C.ar    1  UNL1       -0.0030
     24 C         139.7051  140.7035  169.8339 C.3     1  UNL1        0.0044
     25 C         140.1282  142.1234  169.5995 C.3     1  UNL1        0.0189
     26 C         140.5512  143.5433  169.3650 C.3     1  UNL1        0.0044
     27 C         139.5993  142.5040  170.9506 C.3     1  UNL1        0.0044
@<TRIPOS>BOND
     1    24    25    1
     2    25    26    1
     3    25    27    1
     4    25    18    1
     5    18    19   ar
     6    19    20   ar
     7    20    21   ar
     8    21     1    1
     9     1     2   am
    10     2     3    2
    11     2     4   am
    12     4     5    1
    13     5     6    1
    14     6     7    1
    15     7    11    1
    16    11    12   ar
    17    12    13   ar
    18    13    14   ar
    19    14    15   ar
    20    15    16   ar
    21    16    17    1
    22     7     8    1
    23     8     9    1
    24    21    22   ar
    25    22    23   ar
    26    23    18   ar
    27     9     4    1
    28    16    11   ar
    29     1    10    1
@<TRIPOS>MOLECULE
*****
 27 29 0 0 0
SMALL
GASTEIGER

@<TRIPOS>ATOM
      1 N         145.0440  142.8736  157.4959 N.am    1  UNL1       -0.2681
      2 C         144.2994  141.7876  158.2143 C.2     1  UNL1        0.3078
      3 O         144.6008  140.3484  157.9171 O.2     1  UNL1       -0.2522
      4 N         143.2535  142.1405  159.2299 N.am    1  UNL1       -0.2605
      5 C         142.5089  141.0544  159.9483 C.3     1  UNL1        0.1164
      6 C         141.4629  141.4074  160.9638 C.3     1  UNL1        0.1137
      7 N         141.1616  142.8465  161.2610 N.pl3   1  UNL1       -0.2891
      8 C         141.9061  143.9325  160.5426 C.3     1  UNL1        0.1137
      9 C         142.9521  143.5795  159.5270 C.3     1  UNL1        0.1164
     10 H         144.8462  143.8181  157.6910 H       1  UNL1        0.1564
     11 C         140.1156  143.1995  162.2765 C.ar    1  UNL1        0.1424
     12 N         138.6936  143.4085  161.8471 N.ar    1  UNL1       -0.2283
     13 C         137.6476  143.7615  162.8627 C.ar    1  UNL1        0.1004
     14 C         138.0237  143.9055  164.3077 C.ar    1  UNL1        0.0216
     15 C         139.4456  143.6964  164.7370 C.ar    1  UNL1        0.0158
     16 C         140.4915  143.3435  163.7215 C.ar    1  UNL1        0.0892
     17 CL        141.9135  143.1344  164.1509 Cl      1  UNL1       -0.0793
     18 C         148.1819  141.8146  154.4492 C.ar    1  UNL1       -0.0227
     19 C         148.5856  142.1678  155.8500 C.ar    1  UNL1       -0.0030
     20 C         147.5396  142.5207  156.8656 C.ar    1  UNL1        0.0144
     21 C         146.0900  142.5206  156.4804 C.ar    1  UNL1        0.0516
     22 C         145.6863  142.1674  155.0796 C.ar    1  UNL1        0.0144
     23 C         146.7323  141.8145  154.0640 C.ar    1  UNL1       -0.0030
     24 C         148.1848  141.4720  152.3558 C.3     1  UNL1        0.0044
     25 C         149.2279  141.4616  153.4337 C.3     1  UNL1        0.0189
     26 C         150.2709  141.4512  154.5116 C.3     1  UNL1        0.0044
     27 C         150.2738  141.1086  152.4181 C.3     1  UNL1        0.0044
@<TRIPOS>BOND
     1    24    25    1
     2    25    26    1
     3    25    27    1
     4    25    18    1
     5    18    19   ar
     6    19    20   ar
     7    20    21   ar
     8    21     1    1
     9     1     2   am
    10     2     3    2
    11     2     4   am
    12     4     5    1
    13     5     6    1
    14     6     7    1
    15     7    11    1
    16    11    12   ar
    17    12    13   ar
    18    13    14   ar
    19    14    15   ar
    20    15    16   ar
    21    16    17    1
    22     7     8    1
    23     8     9    1
    24    21    22   ar
    25    22    23   ar
    26    23    18   ar
    27     9     4    1
    28    16    11   ar
    29     1    10    1
@<TRIPOS>MOLECULE
*****
 27 29 0 0 0
SMALL
GASTEIGER

@<TRIPOS>ATOM
      1 N         140.2591  143.4965  161.4032 N.am    1  UNL1       -0.2681
      2 C         139.5463  143.1327  160.1345 C.2     1  UNL1        0.3078
      3 O         138.5779  141.9872  160.1203 O.2     1  UNL1       -0.2522
      4 N         139.8018  143.9144  158.8801 N.am    1  UNL1       -0.2605
      5 C         139.0890  143.5505  157.6114 C.3     1  UNL1        0.1164
      6 C         139.3445  144.3322  156.3569 C.3     1  UNL1        0.1137
      7 N         140.3129  145.4777  156.3711 N.pl3   1  UNL1       -0.2891
      8 C         141.0257  145.8415  157.6398 C.3     1  UNL1        0.1137
      9 C         140.7701  145.0598  158.8943 C.3     1  UNL1        0.1164
     10 H         140.8946  144.2483  161.4125 H       1  UNL1        0.1564
     11 C         140.5684  146.2594  155.1167 C.ar    1  UNL1        0.1424
     12 N         141.5341  145.7400  154.0930 N.ar    1  UNL1       -0.2283
     13 C         141.7896  146.5217  152.8385 C.ar    1  UNL1        0.1004
     14 C         141.0795  147.8227  152.6077 C.ar    1  UNL1        0.0216
     15 C         140.1139  148.3420  153.6314 C.ar    1  UNL1        0.0158
     16 C         139.8584  147.5603  154.8858 C.ar    1  UNL1        0.0892
     17 CL        138.8928  148.0796  155.9095 Cl      1  UNL1       -0.0793
     18 C         139.4925  141.1515  165.1666 C.ar    1  UNL1       -0.0227
     19 C         140.7638  140.9425  164.3986 C.ar    1  UNL1       -0.0030
     20 C         141.0193  141.7241  163.1441 C.ar    1  UNL1        0.0144
     21 C         140.0035  142.7148  162.6577 C.ar    1  UNL1        0.0516
     22 C         138.7322  142.9239  163.4258 C.ar    1  UNL1        0.0144
     23 C         138.4767  142.1422  164.6802 C.ar    1  UNL1       -0.0030
     24 C         140.2550  141.1998  167.1456 C.3     1  UNL1        0.0044
     25 C         139.2369  140.3698  166.4211 C.3     1  UNL1        0.0189
     26 C         138.2189  139.5399  165.6966 C.3     1  UNL1        0.0044
     27 C         138.9814  139.5882  167.6756 C.3     1  UNL1        0.0044
@<TRIPOS>BOND
     1    24    25    1
     2    25    26    1
     3    25    27    1
     4    25    18    1
     5    18    19   ar
     6    19    20   ar
     7    20    21   ar
     8    21     1    1
     9     1     2   am
    10     2     3    2
    11     2     4   am
    12     4     5    1
    13     5     6    1
    14     6     7    1
    15     7    11    1
    16    11    12   ar
    17    12    13   ar
    18    13    14   ar
    19    14    15   ar
    20    15    16   ar
    21    16    17    1
    22     7     8    1
    23     8     9    1
    24    21    22   ar
    25    22    23   ar
    26    23    18   ar
    27     9     4    1
    28    16    11   ar
    29     1    10    1
@<TRIPOS>MOLECULE
*****
 27 29 0 0 0
SMALL
GASTEIGER

@<TRIPOS>ATOM
      1 N         141.0137  142.6911  163.3946 N.am    1  UNL1       -0.2681
      2 C         140.9562  144.0180  162.6977 C.2     1  UNL1        0.3078
      3 O         141.1290  145.2851  163.4818 O.2     1  UNL1       -0.2522
      4 N         140.7259  144.0781  161.2167 N.am    1  UNL1       -0.2605
      5 C         140.6683  145.4051  160.5198 C.3     1  UNL1        0.1164
      6 C         140.4380  145.4651  159.0388 C.3     1  UNL1        0.1137
      7 N         140.2652  144.1981  158.2547 N.pl3   1  UNL1       -0.2891
      8 C         140.3228  142.8711  158.9516 C.3     1  UNL1        0.1137
      9 C         140.5531  142.8111  160.4326 C.3     1  UNL1        0.1164
     10 H         140.9003  141.8595  162.8800 H       1  UNL1        0.1564
     11 C         140.0349  144.2581  156.7737 C.ar    1  UNL1        0.1424
     12 N         138.6372  144.2263  156.2302 N.ar    1  UNL1       -0.2283
     13 C         138.4069  144.2863  154.7492 C.ar    1  UNL1        0.1004
     14 C         139.5743  144.3781  153.8117 C.ar    1  UNL1        0.0216
     15 C         140.9720  144.4098  154.3553 C.ar    1  UNL1        0.0158
     16 C         141.2023  144.3498  155.8363 C.ar    1  UNL1        0.0892
     17 CL        142.5999  144.3815  156.3798 Cl      1  UNL1       -0.0793
     18 C         141.7047  142.5110  167.8376 C.ar    1  UNL1       -0.0227
     19 C         142.8288  142.2107  166.8910 C.ar    1  UNL1       -0.0030
     20 C         142.5985  142.2707  165.4100 C.ar    1  UNL1        0.0144
     21 C         141.2440  142.6310  164.8756 C.ar    1  UNL1        0.0516
     22 C         140.1199  142.9314  165.8222 C.ar    1  UNL1        0.0144
     23 C         140.3502  142.8714  167.3032 C.ar    1  UNL1       -0.0030
     24 C         140.4957  142.7999  169.5566 C.3     1  UNL1        0.0044
     25 C         141.9350  142.4510  169.3186 C.3     1  UNL1        0.0189
     26 C         143.3743  142.1021  169.0806 C.3     1  UNL1        0.0044
     27 C         142.1653  142.3910  170.7996 C.3     1  UNL1        0.0044
@<TRIPOS>BOND
     1    24    25    1
     2    25    26    1
     3    25    27    1
     4    25    18    1
     5    18    19   ar
     6    19    20   ar
     7    20    21   ar
     8    21     1    1
     9     1     2   am
    10     2     3    2
    11     2     4   am
    12     4     5    1
    13     5     6    1
    14     6     7    1
    15     7    11    1
    16    11    12   ar
    17    12    13   ar
    18    13    14   ar
    19    14    15   ar
    20    15    16   ar
    21    16    17    1
    22     7     8    1
    23     8     9    1
    24    21    22   ar
    25    22    23   ar
    26    23    18   ar
    27     9     4    1
    28    16    11   ar
    29     1    10    1
@<TRIPOS>MOLECULE
*****
 27 29 0 0 0
SMALL
GASTEIGER

@<TRIPOS>ATOM
      1 N         140.0151  141.1414  163.6302 N.am    1  UNL1       -0.2681
      2 C         139.7295  142.2006  162.6073 C.2     1  UNL1        0.3078
      3 O         139.9558  143.6456  162.9405 O.2     1  UNL1       -0.2522
      4 N         139.2176  141.8150  161.2511 N.am    1  UNL1       -0.2605
      5 C         138.9320  142.8743  160.2281 C.3     1  UNL1        0.1164
      6 C         138.4202  142.4886  158.8719 C.3     1  UNL1        0.1137
      7 N         138.1939  141.0436  158.5387 N.pl3   1  UNL1       -0.2891
      8 C         138.4795  139.9844  159.5616 C.3     1  UNL1        0.1137
      9 C         138.9913  140.3701  160.9178 C.3     1  UNL1        0.1164
     10 H         139.8665  140.1931  163.4115 H       1  UNL1        0.1564
     11 C         137.6820  140.6580  157.1825 C.ar    1  UNL1        0.1424
     12 N         136.2102  140.7018  156.8960 N.ar    1  UNL1       -0.2283
     13 C         135.6984  140.3161  155.5398 C.ar    1  UNL1        0.1004
     14 C         136.6583  139.8866  154.4701 C.ar    1  UNL1        0.0216
     15 C         138.1300  139.8429  154.7566 C.ar    1  UNL1        0.0158
     16 C         138.6419  140.2285  156.1128 C.ar    1  UNL1        0.0892
     17 CL        140.1136  140.1848  156.3993 Cl      1  UNL1       -0.0793
     18 C         141.5506  142.2985  167.6988 C.ar    1  UNL1       -0.0227
     19 C         142.4587  142.3673  166.5069 C.ar    1  UNL1       -0.0030
     20 C         141.9469  141.9816  165.1507 C.ar    1  UNL1        0.0144
     21 C         140.5269  141.5271  164.9864 C.ar    1  UNL1        0.0516
     22 C         139.6188  141.4583  166.1782 C.ar    1  UNL1        0.0144
     23 C         140.1307  141.8439  167.5344 C.ar    1  UNL1       -0.0030
     24 C         140.7274  143.2806  169.3893 C.3     1  UNL1        0.0044
     25 C         142.0625  142.6841  169.0550 C.3     1  UNL1        0.0189
     26 C         143.3976  142.0877  168.7207 C.3     1  UNL1        0.0044
     27 C         142.5743  143.0698  170.4112 C.3     1  UNL1        0.0044
@<TRIPOS>BOND
     1    24    25    1
     2    25    26    1
     3    25    27    1
     4    25    18    1
     5    18    19   ar
     6    19    20   ar
     7    20    21   ar
     8    21     1    1
     9     1     2   am
    10     2     3    2
    11     2     4   am
    12     4     5    1
    13     5     6    1
    14     6     7    1
    15     7    11    1
    16    11    12   ar
    17    12    13   ar
    18    13    14   ar
    19    14    15   ar
    20    15    16   ar
    21    16    17    1
    22     7     8    1
    23     8     9    1
    24    21    22   ar
    25    22    23   ar
    26    23    18   ar
    27     9     4    1
    28    16    11   ar
    29     1    10    1
