@<TRIPOS>MOLECULE
*****
 32 34 0 0 0
SMALL
GASTEIGER

@<TRIPOS>ATOM
      1 C         142.6714  142.1355  164.5393 C.3     1  UNL1        0.1688
      2 C         143.0502  143.5862  164.4947 C.3     1  UNL1        0.0609
      3 C         142.8116  144.3857  163.2482 C.3     1  UNL1        0.0759
      4 N         142.1944  143.7344  162.0461 N.3     1  UNL1       -0.2709
      5 C         141.8156  142.2838  162.0907 C.3     1  UNL1        0.0759
      6 C         142.0541  141.4842  163.3373 C.3     1  UNL1        0.0609
      7 O         142.9099  141.3360  165.7858 O.3     1  UNL1       -0.4776
      8 C         139.4662  139.7469  166.9541 C.ar    1  UNL1       -0.0191
      9 C         140.6221  140.1413  166.0834 C.ar    1  UNL1        0.0342
     10 C         141.7540  140.9416  166.6565 C.ar    1  UNL1        0.1555
     11 C         141.7299  141.3474  168.1005 C.ar    1  UNL1        0.1151
     12 N         142.8617  142.1476  168.6736 N.ar    1  UNL1       -0.2408
     13 C         142.8376  142.5534  170.1174 C.ar    1  UNL1        0.0989
     14 C         141.6816  142.1589  170.9881 C.ar    1  UNL1        0.0207
     15 C         140.5498  141.3587  170.4150 C.ar    1  UNL1        0.0032
     16 C         140.5739  140.9529  168.9712 C.ar    1  UNL1        0.0204
     17 C         139.4420  140.1526  168.3980 C.ar    1  UNL1       -0.0026
     18 C         138.3343  138.9466  166.3809 C.3     1  UNL1        0.0265
     19 C         138.6208  137.7384  165.5393 C.3     1  UNL1        0.0047
     20 C         138.4064  139.0535  163.3089 C.3     1  UNL1        0.0000
     21 C         138.9645  137.8997  164.0882 C.3     1  UNL1        0.0003
     22 C         141.9558  144.5339  160.7996 C.3     1  UNL1        0.0994
     23 C         140.6064  145.1362  160.5415 C.3     1  UNL1        0.1860
     24 S         139.5215  145.0140  161.5701 S.O2    1  UNL1        0.0421
     25 O         139.9792  146.2936  162.2049 O.2     1  UNL1       -0.1575
     26 O         139.0638  143.7344  160.9352 O.2     1  UNL1       -0.1575
     27 N         138.4365  144.8918  162.5986 N.3     1  UNL1       -0.1859
     28 H         137.5705  144.7069  162.0924 H       1  UNL1        0.1483
     29 C         138.5382  143.8535  163.6763 C.3     1  UNL1        0.0619
     30 C         139.4969  144.7282  164.4285 C.3     1  UNL1        0.0175
     31 C         137.5796  142.9788  162.9241 C.3     1  UNL1        0.0175
     32 C         138.6400  142.8152  164.7541 C.3     1  UNL1        0.0175
@<TRIPOS>BOND
     1    20    21    1
     2    21    19    1
     3    19    18    1
     4    18     8    1
     5     8     9   ar
     6     9    10   ar
     7    10     7    1
     8     7     1    1
     9     1     2    1
    10     2     3    1
    11     3     4    1
    12     4    22    1
    13    22    23    1
    14    23    24    1
    15    24    25    2
    16    24    26    2
    17    24    27    1
    18    27    29    1
    19    29    30    1
    20    29    31    1
    21    29    32    1
    22     4     5    1
    23     5     6    1
    24    10    11   ar
    25    11    12   ar
    26    12    13   ar
    27    13    14   ar
    28    14    15   ar
    29    15    16   ar
    30    16    17   ar
    31    17     8   ar
    32     6     1    1
    33    16    11   ar
    34    27    28    1
@<TRIPOS>MOLECULE
*****
 32 34 0 0 0
SMALL
GASTEIGER

@<TRIPOS>ATOM
      1 C         141.2408  138.3277  164.8010 C.3     1  UNL1        0.1688
      2 C         141.5478  137.8751  163.4041 C.3     1  UNL1        0.0609
      3 C         140.4519  137.7982  162.3828 C.3     1  UNL1        0.0759
      4 N         139.0491  138.1740  162.7582 N.3     1  UNL1       -0.2709
      5 C         138.7421  138.6266  164.1549 C.3     1  UNL1        0.0759
      6 C         139.8380  138.7034  165.1763 C.3     1  UNL1        0.0609
      7 O         142.3366  138.4046  165.8223 O.3     1  UNL1       -0.4776
      8 C         142.6362  141.1424  168.6796 C.ar    1  UNL1       -0.0191
      9 C         142.3483  139.8446  167.9847 C.ar    1  UNL1        0.0342
     10 C         142.6245  139.7023  166.5173 C.ar    1  UNL1        0.1555
     11 C         143.1886  140.8578  165.7447 C.ar    1  UNL1        0.1151
     12 N         143.4648  140.7154  164.2773 N.ar    1  UNL1       -0.2408
     13 C         144.0288  141.8709  163.5048 C.ar    1  UNL1        0.0989
     14 C         144.3167  143.1686  164.1997 C.ar    1  UNL1        0.0207
     15 C         144.0405  143.3110  165.6672 C.ar    1  UNL1        0.0032
     16 C         143.4765  142.1555  166.4396 C.ar    1  UNL1        0.0204
     17 C         143.2003  142.2978  167.9072 C.ar    1  UNL1       -0.0026
     18 C         142.3600  141.2847  170.1472 C.3     1  UNL1        0.0265
     19 C         140.9499  141.4454  170.6328 C.3     1  UNL1        0.0047
     20 C         140.4340  143.8716  169.8602 C.3     1  UNL1        0.0000
     21 C         140.0348  142.4297  169.9667 C.3     1  UNL1        0.0003
     22 C         137.9533  138.0971  161.7368 C.3     1  UNL1        0.0994
     23 C         137.2928  139.3527  161.2495 C.3     1  UNL1        0.1860
     24 S         138.0586  140.6422  161.2253 S.O2    1  UNL1        0.0421
     25 O         138.8984  140.1223  160.0965 O.2     1  UNL1       -0.1575
     26 O         137.2188  141.1621  162.3542 O.2     1  UNL1       -0.1575
     27 N         138.8244  141.9317  161.2012 N.3     1  UNL1       -0.1859
     28 H         138.2004  142.6374  160.8100 H       1  UNL1        0.1483
     29 C         139.3766  142.5000  162.4748 C.3     1  UNL1        0.0619
     30 C         140.4354  141.4376  162.4898 C.3     1  UNL1        0.0175
     31 C         138.3178  143.5624  162.4598 C.3     1  UNL1        0.0175
     32 C         139.9288  143.0683  163.7484 C.3     1  UNL1        0.0175
@<TRIPOS>BOND
     1    20    21    1
     2    21    19    1
     3    19    18    1
     4    18     8    1
     5     8     9   ar
     6     9    10   ar
     7    10     7    1
     8     7     1    1
     9     1     2    1
    10     2     3    1
    11     3     4    1
    12     4    22    1
    13    22    23    1
    14    23    24    1
    15    24    25    2
    16    24    26    2
    17    24    27    1
    18    27    29    1
    19    29    30    1
    20    29    31    1
    21    29    32    1
    22     4     5    1
    23     5     6    1
    24    10    11   ar
    25    11    12   ar
    26    12    13   ar
    27    13    14   ar
    28    14    15   ar
    29    15    16   ar
    30    16    17   ar
    31    17     8   ar
    32     6     1    1
    33    16    11   ar
    34    27    28    1
@<TRIPOS>MOLECULE
*****
 32 34 0 0 0
SMALL
GASTEIGER

@<TRIPOS>ATOM
      1 C         138.2750  140.4244  164.5074 C.3     1  UNL1        0.1688
      2 C         138.1524  139.8307  163.1353 C.3     1  UNL1        0.0609
      3 C         138.1361  140.7239  161.9303 C.3     1  UNL1        0.0759
      4 N         138.2423  142.2108  162.0974 N.3     1  UNL1       -0.2709
      5 C         138.3648  142.8045  163.4694 C.3     1  UNL1        0.0759
      6 C         138.3812  141.9113  164.6744 C.3     1  UNL1        0.0609
      7 O         138.2914  139.5313  165.7123 O.3     1  UNL1       -0.4776
      8 C         140.3589  139.9904  169.0686 C.ar    1  UNL1       -0.0191
      9 C         139.2064  139.9357  168.1100 C.ar    1  UNL1        0.0342
     10 C         139.4439  139.5860  166.6709 C.ar    1  UNL1        0.1555
     11 C         140.8339  139.2911  166.1901 C.ar    1  UNL1        0.1151
     12 N         141.0713  138.9414  164.7509 N.ar    1  UNL1       -0.2408
     13 C         142.4612  138.6465  164.2703 C.ar    1  UNL1        0.0989
     14 C         143.6137  138.7012  165.2288 C.ar    1  UNL1        0.0207
     15 C         143.3763  139.0508  166.6680 C.ar    1  UNL1        0.0032
     16 C         141.9863  139.3458  167.1487 C.ar    1  UNL1        0.0204
     17 C         141.7488  139.6954  168.5879 C.ar    1  UNL1       -0.0026
     18 C         140.1214  140.3400  170.5078 C.3     1  UNL1        0.0265
     19 C         140.5873  141.6606  171.0456 C.3     1  UNL1        0.0047
     20 C         140.3914  143.6851  169.4291 C.3     1  UNL1        0.0000
     21 C         139.8999  142.9259  170.6258 C.3     1  UNL1        0.0003
     22 C         138.2259  143.1039  160.8924 C.3     1  UNL1        0.0994
     23 C         139.4678  143.2751  160.0687 C.3     1  UNL1        0.1860
     24 S         140.6135  144.0852  160.5987 S.O2    1  UNL1        0.0421
     25 O         139.9096  145.3461  160.1930 O.2     1  UNL1       -0.1575
     26 O         141.3174  142.8244  161.0044 O.2     1  UNL1       -0.1575
     27 N         141.7592  144.8954  161.1287 N.3     1  UNL1       -0.1859
     28 H         141.5236  145.8755  160.9732 H       1  UNL1        0.1483
     29 C         142.1640  144.7704  162.5676 C.3     1  UNL1        0.0619
     30 C         143.4759  144.1772  162.1471 C.3     1  UNL1        0.0175
     31 C         140.8520  145.3635  162.9882 C.3     1  UNL1        0.0175
     32 C         142.5687  144.6453  164.0066 C.3     1  UNL1        0.0175
@<TRIPOS>BOND
     1    20    21    1
     2    21    19    1
     3    19    18    1
     4    18     8    1
     5     8     9   ar
     6     9    10   ar
     7    10     7    1
     8     7     1    1
     9     1     2    1
    10     2     3    1
    11     3     4    1
    12     4    22    1
    13    22    23    1
    14    23    24    1
    15    24    25    2
    16    24    26    2
    17    24    27    1
    18    27    29    1
    19    29    30    1
    20    29    31    1
    21    29    32    1
    22     4     5    1
    23     5     6    1
    24    10    11   ar
    25    11    12   ar
    26    12    13   ar
    27    13    14   ar
    28    14    15   ar
    29    15    16   ar
    30    16    17   ar
    31    17     8   ar
    32     6     1    1
    33    16    11   ar
    34    27    28    1
@<TRIPOS>MOLECULE
*****
 32 34 0 0 0
SMALL
GASTEIGER

@<TRIPOS>ATOM
      1 C         139.7449  139.6298  164.9736 C.3     1  UNL1        0.1688
      2 C         138.5178  140.4918  164.9359 C.3     1  UNL1        0.0609
      3 C         137.8513  140.7909  163.6259 C.3     1  UNL1        0.0759
      4 N         138.4119  140.2282  162.3534 N.3     1  UNL1       -0.2709
      5 C         139.6389  139.3663  162.3911 C.3     1  UNL1        0.0759
      6 C         140.3054  139.0670  163.7012 C.3     1  UNL1        0.0609
      7 O         140.4113  139.3306  166.2836 O.3     1  UNL1       -0.4776
      8 C         143.1216  142.1922  166.7475 C.ar    1  UNL1       -0.0191
      9 C         142.2449  141.1620  166.0995 C.ar    1  UNL1        0.0342
     10 C         141.2880  140.3609  166.9317 C.ar    1  UNL1        0.1555
     11 C         141.2078  140.5900  168.4119 C.ar    1  UNL1        0.1151
     12 N         140.2510  139.7889  169.2441 N.ar    1  UNL1       -0.2408
     13 C         140.1708  140.0180  170.7243 C.ar    1  UNL1        0.0989
     14 C         141.0475  141.0483  171.3723 C.ar    1  UNL1        0.0207
     15 C         142.0044  141.8494  170.5402 C.ar    1  UNL1        0.0032
     16 C         142.0846  141.6202  169.0600 C.ar    1  UNL1        0.0204
     17 C         143.0415  142.4214  168.2277 C.ar    1  UNL1       -0.0026
     18 C         144.0786  142.9933  165.9153 C.3     1  UNL1        0.0265
     19 C         144.2971  142.6394  164.4741 C.3     1  UNL1        0.0047
     20 C         143.7371  145.0727  163.7563 C.3     1  UNL1        0.0000
     21 C         143.9734  143.6350  163.3999 C.3     1  UNL1        0.0003
     22 C         137.7454  140.5274  161.0434 C.3     1  UNL1        0.0994
     23 C         138.4018  141.4527  160.0620 C.3     1  UNL1        0.1860
     24 S         139.1722  142.6425  160.5528 S.O2    1  UNL1        0.0421
     25 O         137.9070  143.2380  161.0954 O.2     1  UNL1       -0.1575
     26 O         140.4375  142.0469  160.0102 O.2     1  UNL1       -0.1575
     27 N         139.9427  143.8322  161.0436 N.3     1  UNL1       -0.1859
     28 H         139.5372  144.6522  160.5923 H       1  UNL1        0.1483
     29 C         140.0042  144.1322  162.5120 C.3     1  UNL1        0.0619
     30 C         140.6536  142.8024  162.7564 C.3     1  UNL1        0.0175
     31 C         139.3548  145.4621  162.2675 C.3     1  UNL1        0.0175
     32 C         140.0658  144.4322  163.9804 C.3     1  UNL1        0.0175
@<TRIPOS>BOND
     1    20    21    1
     2    21    19    1
     3    19    18    1
     4    18     8    1
     5     8     9   ar
     6     9    10   ar
     7    10     7    1
     8     7     1    1
     9     1     2    1
    10     2     3    1
    11     3     4    1
    12     4    22    1
    13    22    23    1
    14    23    24    1
    15    24    25    2
    16    24    26    2
    17    24    27    1
    18    27    29    1
    19    29    30    1
    20    29    31    1
    21    29    32    1
    22     4     5    1
    23     5     6    1
    24    10    11   ar
    25    11    12   ar
    26    12    13   ar
    27    13    14   ar
    28    14    15   ar
    29    15    16   ar
    30    16    17   ar
    31    17     8   ar
    32     6     1    1
    33    16    11   ar
    34    27    28    1
@<TRIPOS>MOLECULE
*****
 32 34 0 0 0
SMALL
GASTEIGER

@<TRIPOS>ATOM
      1 C         139.1192  142.1901  165.0288 C.3     1  UNL1        0.1688
      2 C         140.1551  143.2672  165.1594 C.3     1  UNL1        0.0609
      3 C         140.1699  144.4146  164.1934 C.3     1  UNL1        0.0759
      4 N         139.1489  144.4851  163.0968 N.3     1  UNL1       -0.2709
      5 C         138.1130  143.4081  162.9662 C.3     1  UNL1        0.0759
      6 C         138.0982  142.2606  163.9322 C.3     1  UNL1        0.0609
      7 O         139.1044  141.0427  165.9947 O.3     1  UNL1       -0.4776
      8 C         142.5866  139.1490  165.7987 C.ar    1  UNL1       -0.0191
      9 C         141.2986  139.7942  165.3807 C.ar    1  UNL1        0.0342
     10 C         140.3925  140.3975  166.4127 C.ar    1  UNL1        0.1555
     11 C         140.7744  140.3556  167.8627 C.ar    1  UNL1        0.1151
     12 N         139.8683  140.9589  168.8947 N.ar    1  UNL1       -0.2408
     13 C         140.2503  140.9171  170.3446 C.ar    1  UNL1        0.0989
     14 C         141.5383  140.2719  170.7625 C.ar    1  UNL1        0.0207
     15 C         142.4444  139.6686  169.7306 C.ar    1  UNL1        0.0032
     16 C         142.0624  139.7104  168.2807 C.ar    1  UNL1        0.0204
     17 C         142.9685  139.1071  167.2486 C.ar    1  UNL1       -0.0026
     18 C         143.4927  138.5456  164.7667 C.3     1  UNL1        0.0265
     19 C         144.5610  139.3813  164.1260 C.3     1  UNL1        0.0047
     20 C         145.7392  141.6759  163.8156 C.3     1  UNL1        0.0000
     21 C         144.6708  140.8403  164.4562 C.3     1  UNL1        0.0003
     22 C         139.1637  145.6325  162.1308 C.3     1  UNL1        0.0994
     23 C         140.3048  145.7892  161.1698 C.3     1  UNL1        0.1860
     24 S         140.8369  144.5941  160.4361 S.O2    1  UNL1        0.0421
     25 O         142.1704  144.7823  161.0966 O.2     1  UNL1       -0.1575
     26 O         139.5034  144.4059  159.7756 O.2     1  UNL1       -0.1575
     27 N         141.3691  143.3990  159.7023 N.3     1  UNL1       -0.1859
     28 H         141.9172  143.7544  158.9190 H       1  UNL1        0.1483
     29 C         142.2322  142.4026  160.4180 C.3     1  UNL1        0.0619
     30 C         141.0744  142.0301  161.2959 C.3     1  UNL1        0.0175
     31 C         143.3901  142.7751  159.5402 C.3     1  UNL1        0.0175
     32 C         143.0954  141.4063  161.1337 C.3     1  UNL1        0.0175
@<TRIPOS>BOND
     1    20    21    1
     2    21    19    1
     3    19    18    1
     4    18     8    1
     5     8     9   ar
     6     9    10   ar
     7    10     7    1
     8     7     1    1
     9     1     2    1
    10     2     3    1
    11     3     4    1
    12     4    22    1
    13    22    23    1
    14    23    24    1
    15    24    25    2
    16    24    26    2
    17    24    27    1
    18    27    29    1
    19    29    30    1
    20    29    31    1
    21    29    32    1
    22     4     5    1
    23     5     6    1
    24    10    11   ar
    25    11    12   ar
    26    12    13   ar
    27    13    14   ar
    28    14    15   ar
    29    15    16   ar
    30    16    17   ar
    31    17     8   ar
    32     6     1    1
    33    16    11   ar
    34    27    28    1
@<TRIPOS>MOLECULE
*****
 32 34 0 0 0
SMALL
GASTEIGER

@<TRIPOS>ATOM
      1 C         143.8820  139.9742  164.8005 C.3     1  UNL1        0.1688
      2 C         144.0296  139.3448  163.4469 C.3     1  UNL1        0.0609
      3 C         144.3190  140.2005  162.2494 C.3     1  UNL1        0.0759
      4 N         144.4608  141.6856  162.4055 N.3     1  UNL1       -0.2709
      5 C         144.3132  142.3150  163.7590 C.3     1  UNL1        0.0759
      6 C         144.0238  141.4593  164.9566 C.3     1  UNL1        0.0609
      7 O         143.5927  139.1185  165.9980 O.3     1  UNL1       -0.4776
      8 C         141.5216  140.2202  169.1990 C.ar    1  UNL1       -0.0191
      9 C         142.6797  139.8913  168.3043 C.ar    1  UNL1        0.0342
     10 C         142.4345  139.4474  166.8926 C.ar    1  UNL1        0.1555
     11 C         141.0311  139.3326  166.3756 C.ar    1  UNL1        0.1151
     12 N         140.7858  138.8887  164.9640 N.ar    1  UNL1       -0.2408
     13 C         139.3825  138.7738  164.4470 C.ar    1  UNL1        0.0989
     14 C         138.2243  139.1028  165.3417 C.ar    1  UNL1        0.0207
     15 C         138.4696  139.5466  166.7534 C.ar    1  UNL1        0.0032
     16 C         139.8729  139.6615  167.2703 C.ar    1  UNL1        0.0204
     17 C         140.1182  140.1054  168.6820 C.ar    1  UNL1       -0.0026
     18 C         141.7669  140.6641  170.6107 C.3     1  UNL1        0.0265
     19 C         142.0587  142.1060  170.9036 C.3     1  UNL1        0.0047
     20 C         140.3957  143.7706  169.8021 C.3     1  UNL1        0.0000
     21 C         141.7619  143.1554  169.8738 C.3     1  UNL1        0.0003
     22 C         144.7502  142.5414  161.2080 C.3     1  UNL1        0.0994
     23 C         143.6213  143.0710  160.3742 C.3     1  UNL1        0.1860
     24 S         142.2751  143.3018  160.9941 S.O2    1  UNL1        0.0421
     25 O         141.7664  142.0419  160.3586 O.2     1  UNL1       -0.1575
     26 O         142.7838  144.5617  161.6296 O.2     1  UNL1       -0.1575
     27 N         140.9289  143.5326  161.6141 N.3     1  UNL1       -0.1859
     28 H         140.9898  143.2088  162.5794 H       1  UNL1        0.1483
     29 C         140.3502  144.9158  161.6571 C.3     1  UNL1        0.0619
     30 C         140.3073  144.9445  160.1580 C.3     1  UNL1        0.0175
     31 C         140.3931  144.8872  163.1562 C.3     1  UNL1        0.0175
     32 C         139.7714  146.2990  161.7001 C.3     1  UNL1        0.0175
@<TRIPOS>BOND
     1    20    21    1
     2    21    19    1
     3    19    18    1
     4    18     8    1
     5     8     9   ar
     6     9    10   ar
     7    10     7    1
     8     7     1    1
     9     1     2    1
    10     2     3    1
    11     3     4    1
    12     4    22    1
    13    22    23    1
    14    23    24    1
    15    24    25    2
    16    24    26    2
    17    24    27    1
    18    27    29    1
    19    29    30    1
    20    29    31    1
    21    29    32    1
    22     4     5    1
    23     5     6    1
    24    10    11   ar
    25    11    12   ar
    26    12    13   ar
    27    13    14   ar
    28    14    15   ar
    29    15    16   ar
    30    16    17   ar
    31    17     8   ar
    32     6     1    1
    33    16    11   ar
    34    27    28    1
@<TRIPOS>MOLECULE
*****
 32 34 0 0 0
SMALL
GASTEIGER

@<TRIPOS>ATOM
      1 C         140.4811  143.9930  164.7869 C.3     1  UNL1        0.1688
      2 C         141.7491  143.6492  164.0627 C.3     1  UNL1        0.0609
      3 C         141.8776  143.9389  162.5967 C.3     1  UNL1        0.0759
      4 N         140.7383  144.5724  161.8546 N.3     1  UNL1       -0.2709
      5 C         139.4705  144.9162  162.5786 C.3     1  UNL1        0.0759
      6 C         139.3418  144.6265  164.0448 C.3     1  UNL1        0.0609
      7 O         140.3526  143.7033  166.2529 O.3     1  UNL1       -0.4776
      8 C         138.9868  139.9771  166.2551 C.ar    1  UNL1       -0.0191
      9 C         139.3217  141.3637  165.7911 C.ar    1  UNL1        0.0342
     10 C         140.0177  142.3167  166.7169 C.ar    1  UNL1        0.1555
     11 C         140.3788  141.8833  168.1068 C.ar    1  UNL1        0.1151
     12 N         141.0747  142.8363  169.0327 N.ar    1  UNL1       -0.2408
     13 C         141.4358  142.4028  170.4225 C.ar    1  UNL1        0.0989
     14 C         141.1009  141.0163  170.8865 C.ar    1  UNL1        0.0207
     15 C         140.4049  140.0632  169.9607 C.ar    1  UNL1        0.0032
     16 C         140.0439  140.4967  168.5708 C.ar    1  UNL1        0.0204
     17 C         139.3479  139.5436  167.6449 C.ar    1  UNL1       -0.0026
     18 C         138.2908  139.0240  165.3291 C.3     1  UNL1        0.0265
     19 C         138.9082  137.6921  165.0210 C.3     1  UNL1        0.0047
     20 C         141.4375  137.3861  164.5123 C.3     1  UNL1        0.0000
     21 C         140.0322  137.5972  164.0323 C.3     1  UNL1        0.0003
     22 C         140.8669  144.8621  160.3885 C.3     1  UNL1        0.0994
     23 C         140.0071  144.1301  159.4011 C.3     1  UNL1        0.1860
     24 S         139.8014  142.6506  159.5376 S.O2    1  UNL1        0.0421
     25 O         138.3282  142.8717  159.7134 O.2     1  UNL1       -0.1575
     26 O         141.2745  142.4296  159.3619 O.2     1  UNL1       -0.1575
     27 N         139.5957  141.1711  159.6742 N.3     1  UNL1       -0.1859
     28 H         140.5171  140.7576  159.8169 H       1  UNL1        0.1483
     29 C         138.7077  140.6342  160.7573 C.3     1  UNL1        0.0619
     30 C         137.7574  140.1134  159.7201 C.3     1  UNL1        0.0175
     31 C         139.6580  141.1549  161.7945 C.3     1  UNL1        0.0175
     32 C         137.8197  140.0972  161.8405 C.3     1  UNL1        0.0175
@<TRIPOS>BOND
     1    20    21    1
     2    21    19    1
     3    19    18    1
     4    18     8    1
     5     8     9   ar
     6     9    10   ar
     7    10     7    1
     8     7     1    1
     9     1     2    1
    10     2     3    1
    11     3     4    1
    12     4    22    1
    13    22    23    1
    14    23    24    1
    15    24    25    2
    16    24    26    2
    17    24    27    1
    18    27    29    1
    19    29    30    1
    20    29    31    1
    21    29    32    1
    22     4     5    1
    23     5     6    1
    24    10    11   ar
    25    11    12   ar
    26    12    13   ar
    27    13    14   ar
    28    14    15   ar
    29    15    16   ar
    30    16    17   ar
    31    17     8   ar
    32     6     1    1
    33    16    11   ar
    34    27    28    1
@<TRIPOS>MOLECULE
*****
 32 34 0 0 0
SMALL
GASTEIGER

@<TRIPOS>ATOM
      1 C         143.5974  139.8547  164.9728 C.3     1  UNL1        0.1688
      2 C         144.0462  141.2774  164.8157 C.3     1  UNL1        0.0609
      3 C         144.3520  141.8210  163.4515 C.3     1  UNL1        0.0759
      4 N         144.2090  140.9421  162.2445 N.3     1  UNL1       -0.2709
      5 C         143.7602  139.5195  162.4016 C.3     1  UNL1        0.0759
      6 C         143.4544  138.9757  163.7657 C.3     1  UNL1        0.0609
      7 O         143.2916  139.3111  166.3369 O.3     1  UNL1       -0.4776
      8 C         139.3455  139.5272  166.6999 C.ar    1  UNL1       -0.0191
      9 C         140.7045  139.3234  166.0986 C.ar    1  UNL1        0.0342
     10 C         141.9326  139.5149  166.9382 C.ar    1  UNL1        0.1555
     11 C         141.8017  139.9104  168.3793 C.ar    1  UNL1        0.1151
     12 N         143.0298  140.1020  169.2189 N.ar    1  UNL1       -0.2408
     13 C         142.8989  140.4974  170.6599 C.ar    1  UNL1        0.0989
     14 C         141.5399  140.7013  171.2612 C.ar    1  UNL1        0.0207
     15 C         140.3118  140.5097  170.4216 C.ar    1  UNL1        0.0032
     16 C         140.4427  140.1143  168.9806 C.ar    1  UNL1        0.0204
     17 C         139.2146  139.9227  168.1408 C.ar    1  UNL1       -0.0026
     18 C         138.1174  139.3356  165.8601 C.3     1  UNL1        0.0265
     19 C         138.0279  139.9739  164.5057 C.3     1  UNL1        0.0047
     20 C         137.3802  142.1260  163.2022 C.3     1  UNL1        0.0000
     21 C         138.0386  141.4685  164.3787 C.3     1  UNL1        0.0003
     22 C         144.5148  141.4857  160.8804 C.3     1  UNL1        0.0994
     23 C         144.1317  142.8932  160.5307 C.3     1  UNL1        0.1860
     24 S         142.7013  143.3308  160.6422 S.O2    1  UNL1        0.0421
     25 O         143.1248  144.5019  161.4784 O.2     1  UNL1       -0.1575
     26 O         142.2778  142.1598  159.8060 O.2     1  UNL1       -0.1575
     27 N         141.2709  143.7685  160.7538 N.3     1  UNL1       -0.1859
     28 H         140.6996  142.9993  160.4041 H       1  UNL1        0.1483
     29 C         140.7068  144.1549  162.0888 C.3     1  UNL1        0.0619
     30 C         140.3860  145.5207  161.5580 C.3     1  UNL1        0.0175
     31 C         141.0276  142.7891  162.6197 C.3     1  UNL1        0.0175
     32 C         140.1426  144.5413  163.4239 C.3     1  UNL1        0.0175
@<TRIPOS>BOND
     1    20    21    1
     2    21    19    1
     3    19    18    1
     4    18     8    1
     5     8     9   ar
     6     9    10   ar
     7    10     7    1
     8     7     1    1
     9     1     2    1
    10     2     3    1
    11     3     4    1
    12     4    22    1
    13    22    23    1
    14    23    24    1
    15    24    25    2
    16    24    26    2
    17    24    27    1
    18    27    29    1
    19    29    30    1
    20    29    31    1
    21    29    32    1
    22     4     5    1
    23     5     6    1
    24    10    11   ar
    25    11    12   ar
    26    12    13   ar
    27    13    14   ar
    28    14    15   ar
    29    15    16   ar
    30    16    17   ar
    31    17     8   ar
    32     6     1    1
    33    16    11   ar
    34    27    28    1
@<TRIPOS>MOLECULE
*****
 32 34 0 0 0
SMALL
GASTEIGER

@<TRIPOS>ATOM
      1 C         139.2510  139.4377  165.4666 C.3     1  UNL1        0.1688
      2 C         139.4483  138.1409  164.7388 C.3     1  UNL1        0.0609
      3 C         138.8943  137.9652  163.3560 C.3     1  UNL1        0.0759
      4 N         138.1429  139.0861  162.7010 N.3     1  UNL1       -0.2709
      5 C         137.9456  140.3827  163.4287 C.3     1  UNL1        0.0759
      6 C         138.4996  140.5585  164.8116 C.3     1  UNL1        0.0609
      7 O         139.8050  139.6134  166.8494 O.3     1  UNL1       -0.4776
      8 C         142.9171  141.9777  166.1604 C.ar    1  UNL1       -0.0191
      9 C         141.7697  141.0406  165.9257 C.ar    1  UNL1        0.0342
     10 C         140.9525  140.5505  167.0841 C.ar    1  UNL1        0.1555
     11 C         141.2827  140.9977  168.4774 C.ar    1  UNL1        0.1151
     12 N         140.4655  140.5076  169.6358 N.ar    1  UNL1       -0.2408
     13 C         140.7958  140.9548  171.0290 C.ar    1  UNL1        0.0989
     14 C         141.9433  141.8919  171.2637 C.ar    1  UNL1        0.0207
     15 C         142.7605  142.3819  170.1053 C.ar    1  UNL1        0.0032
     16 C         142.4302  141.9348  168.7121 C.ar    1  UNL1        0.0204
     17 C         143.2474  142.4248  167.5536 C.ar    1  UNL1       -0.0026
     18 C         143.7343  142.4677  165.0019 C.3     1  UNL1        0.0265
     19 C         143.9722  141.5742  163.8207 C.3     1  UNL1        0.0047
     20 C         144.9622  139.2803  164.5335 C.3     1  UNL1        0.0000
     21 C         145.1122  140.5994  163.8353 C.3     1  UNL1        0.0003
     22 C         137.5889  138.9103  161.3182 C.3     1  UNL1        0.0994
     23 C         138.1500  139.7080  160.1784 C.3     1  UNL1        0.1860
     24 S         139.6283  139.7162  159.9247 S.O2    1  UNL1        0.0421
     25 O         139.6468  141.2079  160.0805 O.2     1  UNL1       -0.1575
     26 O         139.6098  138.2244  159.7689 O.2     1  UNL1       -0.1575
     27 N         141.1066  139.7243  159.6710 N.3     1  UNL1       -0.1859
     28 H         141.4092  140.6969  159.7245 H       1  UNL1        0.1483
     29 C         142.0242  138.9360  160.5580 C.3     1  UNL1        0.0619
     30 C         142.4747  138.1302  159.3758 C.3     1  UNL1        0.0175
     31 C         141.5737  139.7419  161.7402 C.3     1  UNL1        0.0175
     32 C         142.9417  138.1478  161.4450 C.3     1  UNL1        0.0175
@<TRIPOS>BOND
     1    20    21    1
     2    21    19    1
     3    19    18    1
     4    18     8    1
     5     8     9   ar
     6     9    10   ar
     7    10     7    1
     8     7     1    1
     9     1     2    1
    10     2     3    1
    11     3     4    1
    12     4    22    1
    13    22    23    1
    14    23    24    1
    15    24    25    2
    16    24    26    2
    17    24    27    1
    18    27    29    1
    19    29    30    1
    20    29    31    1
    21    29    32    1
    22     4     5    1
    23     5     6    1
    24    10    11   ar
    25    11    12   ar
    26    12    13   ar
    27    13    14   ar
    28    14    15   ar
    29    15    16   ar
    30    16    17   ar
    31    17     8   ar
    32     6     1    1
    33    16    11   ar
    34    27    28    1
