@<TRIPOS>MOLECULE
*****
 25 28 0 0 0
SMALL
GASTEIGER

@<TRIPOS>ATOM
      1 C         142.2972  144.2147  163.3164 C.3     1  UNL1        0.1084
      2 C         143.5924  144.7297  163.8707 C.3     1  UNL1        0.0966
      3 C         143.9467  143.8994  165.0686 C.2     1  UNL1        0.2299
      4 O         145.1636  144.0677  165.9292 O.2     1  UNL1       -0.2745
      5 N         142.8704  142.8712  165.2547 N.am    1  UNL1       -0.2581
      6 C         141.8510  143.0662  164.1718 C.3     1  UNL1        0.1079
      7 C         142.8222  141.8309  166.3341 C.ar    1  UNL1        0.0540
      8 C         142.7404  140.3775  165.9719 C.ar    1  UNL1        0.0172
      9 C         142.6922  139.3371  167.0514 C.ar    1  UNL1        0.0309
     10 C         142.7258  139.7501  168.4930 C.ar    1  UNL1        0.1402
     11 F         142.6775  138.7097  169.5725 F       1  UNL1       -0.2042
     12 C         142.8075  141.2034  168.8552 C.ar    1  UNL1        0.0309
     13 C         142.8558  142.2438  167.7758 C.ar    1  UNL1        0.0172
     14 C         141.0183  145.3412  159.8292 C.ar    1  UNL1        0.2033
     15 N         139.9087  145.8251  160.7150 N.ar    1  UNL1       -0.0560
     16 O         140.2527  145.4620  162.1291 O.2     1  UNL1       -0.3370
     17 C         141.5749  144.7537  162.1173 C.ar    1  UNL1        0.2383
     18 N         142.0480  144.6791  160.6958 N.ar    1  UNL1       -0.1907
     19 C         138.9793  147.1077  155.3882 C.3     1  UNL1        0.0310
     20 C         140.0666  146.3761  156.1179 C.ar    1  UNL1       -0.0218
     21 C         141.2218  145.7963  155.3569 C.ar    1  UNL1       -0.0043
     22 C         142.3092  145.0647  156.0866 C.ar    1  UNL1       -0.0002
     23 C         142.2413  144.9130  157.5773 C.ar    1  UNL1        0.0031
     24 C         141.0862  145.4929  158.3383 C.ar    1  UNL1        0.0388
     25 C         139.9988  146.2245  157.6086 C.ar    1  UNL1       -0.0011
@<TRIPOS>BOND
     1    19    20    1
     2    20    21   ar
     3    21    22   ar
     4    22    23   ar
     5    23    24   ar
     6    24    14    1
     7    14    15   ar
     8    15    16   ar
     9    16    17   ar
    10    17     1    1
    11     1     2    1
    12     2     3    1
    13     3     4    2
    14     3     5   am
    15     5     7    1
    16     7     8   ar
    17     8     9   ar
    18     9    10   ar
    19    10    11    1
    20    10    12   ar
    21    12    13   ar
    22     5     6    1
    23    17    18   ar
    24    24    25   ar
    25    25    20   ar
    26    18    14   ar
    27     6     1    1
    28    13     7   ar
@<TRIPOS>MOLECULE
*****
 25 28 0 0 0
SMALL
GASTEIGER

@<TRIPOS>ATOM
      1 C         140.2996  144.4939  162.3417 C.3     1  UNL1        0.1084
      2 C         139.3941  145.3904  163.1331 C.3     1  UNL1        0.0966
      3 C         139.1370  144.7364  164.4583 C.2     1  UNL1        0.2299
      4 O         138.2832  145.2865  165.5621 O.2     1  UNL1       -0.2745
      5 N         139.8837  143.4357  164.4859 N.am    1  UNL1       -0.2581
      6 C         140.6022  143.2859  163.1778 C.3     1  UNL1        0.1079
      7 C         139.9076  142.4569  165.6222 C.ar    1  UNL1        0.0540
      8 C         140.5232  142.8453  166.9338 C.ar    1  UNL1        0.0172
      9 C         140.5471  141.8663  168.0702 C.ar    1  UNL1        0.0309
     10 C         139.9554  140.4992  167.8949 C.ar    1  UNL1        0.1402
     11 F         139.9793  139.5203  169.0312 F       1  UNL1       -0.2042
     12 C         139.3398  140.1108  166.5833 C.ar    1  UNL1        0.0309
     13 C         139.3159  141.0897  165.4470 C.ar    1  UNL1        0.0172
     14 C         140.9311  145.4389  158.6304 C.ar    1  UNL1        0.2033
     15 N         142.2725  144.8946  159.0232 N.ar    1  UNL1       -0.0560
     16 O         142.1993  144.4743  160.4612 O.2     1  UNL1       -0.3370
     17 C         140.8125  144.7589  160.9572 C.ar    1  UNL1        0.2383
     18 N         140.0288  145.3551  159.8257 N.ar    1  UNL1       -0.1907
     19 C         141.7239  145.6537  153.4996 C.3     1  UNL1        0.0310
     20 C         140.9540  146.0807  154.7141 C.ar    1  UNL1       -0.0218
     21 C         139.8107  147.0420  154.5777 C.ar    1  UNL1       -0.0043
     22 C         139.0408  147.4690  155.7921 C.ar    1  UNL1       -0.0002
     23 C         139.4142  146.9346  157.1430 C.ar    1  UNL1        0.0031
     24 C         140.5576  145.9733  157.2794 C.ar    1  UNL1        0.0388
     25 C         141.3274  145.5464  156.0650 C.ar    1  UNL1       -0.0011
@<TRIPOS>BOND
     1    19    20    1
     2    20    21   ar
     3    21    22   ar
     4    22    23   ar
     5    23    24   ar
     6    24    14    1
     7    14    15   ar
     8    15    16   ar
     9    16    17   ar
    10    17     1    1
    11     1     2    1
    12     2     3    1
    13     3     4    2
    14     3     5   am
    15     5     7    1
    16     7     8   ar
    17     8     9   ar
    18     9    10   ar
    19    10    11    1
    20    10    12   ar
    21    12    13   ar
    22     5     6    1
    23    17    18   ar
    24    24    25   ar
    25    25    20   ar
    26    18    14   ar
    27     6     1    1
    28    13     7   ar
@<TRIPOS>MOLECULE
*****
 25 28 0 0 0
SMALL
GASTEIGER

@<TRIPOS>ATOM
      1 C         139.4436  139.8014  165.0889 C.3     1  UNL1        0.1084
      2 C         138.6282  139.2266  166.2091 C.3     1  UNL1        0.0966
      3 C         139.1520  139.7866  167.4983 C.2     1  UNL1        0.2299
      4 O         138.6285  139.4796  168.8701 O.2     1  UNL1       -0.2745
      5 N         140.2910  140.7075  167.1749 N.am    1  UNL1       -0.2581
      6 C         140.4712  140.7166  165.6858 C.3     1  UNL1        0.1079
      7 C         141.1065  141.4830  168.1665 C.ar    1  UNL1        0.0540
      8 C         140.4873  142.6243  168.9177 C.ar    1  UNL1        0.0172
      9 C         141.3028  143.3998  169.9094 C.ar    1  UNL1        0.0309
     10 C         142.7375  143.0342  170.1498 C.ar    1  UNL1        0.1402
     11 F         143.5531  143.8098  171.1415 F       1  UNL1       -0.2042
     12 C         143.3568  141.8930  169.3987 C.ar    1  UNL1        0.0309
     13 C         142.5413  141.1174  168.4070 C.ar    1  UNL1        0.0172
     14 C         139.7225  138.9467  161.3131 C.ar    1  UNL1        0.2033
     15 N         138.2478  139.1856  161.4480 N.ar    1  UNL1       -0.0560
     16 O         137.9638  139.5349  162.8788 O.2     1  UNL1       -0.3370
     17 C         139.2630  139.5118  163.6282 C.ar    1  UNL1        0.2383
     18 N         140.3499  139.1483  162.6605 N.ar    1  UNL1       -0.1907
     19 C         139.6410  137.9080  156.2224 C.3     1  UNL1        0.0310
     20 C         140.4024  138.0526  157.5067 C.ar    1  UNL1       -0.0218
     21 C         141.8844  137.8225  157.5299 C.ar    1  UNL1       -0.0043
     22 C         142.6458  137.9671  158.8142 C.ar    1  UNL1       -0.0002
     23 C         141.9252  138.3419  160.0752 C.ar    1  UNL1        0.0031
     24 C         140.4432  138.5720  160.0520 C.ar    1  UNL1        0.0388
     25 C         139.6818  138.4273  158.7677 C.ar    1  UNL1       -0.0011
@<TRIPOS>BOND
     1    19    20    1
     2    20    21   ar
     3    21    22   ar
     4    22    23   ar
     5    23    24   ar
     6    24    14    1
     7    14    15   ar
     8    15    16   ar
     9    16    17   ar
    10    17     1    1
    11     1     2    1
    12     2     3    1
    13     3     4    2
    14     3     5   am
    15     5     7    1
    16     7     8   ar
    17     8     9   ar
    18     9    10   ar
    19    10    11    1
    20    10    12   ar
    21    12    13   ar
    22     5     6    1
    23    17    18   ar
    24    24    25   ar
    25    25    20   ar
    26    18    14   ar
    27     6     1    1
    28    13     7   ar
@<TRIPOS>MOLECULE
*****
 25 28 0 0 0
SMALL
GASTEIGER

@<TRIPOS>ATOM
      1 C         142.7822  139.4427  164.8334 C.3     1  UNL1        0.1084
      2 C         143.4066  138.5810  165.8905 C.3     1  UNL1        0.0966
      3 C         142.9197  139.0596  167.2261 C.2     1  UNL1        0.2299
      4 O         143.2926  138.4821  168.5592 O.2     1  UNL1       -0.2745
      5 N         141.9943  140.2172  166.9944 N.am    1  UNL1       -0.2581
      6 C         141.9094  140.4540  165.5157 C.3     1  UNL1        0.1079
      7 C         141.2794  141.0004  168.0552 C.ar    1  UNL1        0.0540
      8 C         140.1952  140.3518  168.8638 C.ar    1  UNL1        0.0172
      9 C         139.4802  141.1351  169.9248 C.ar    1  UNL1        0.0309
     10 C         139.8496  142.5668  170.1770 C.ar    1  UNL1        0.1402
     11 F         139.1347  143.3501  171.2379 F       1  UNL1       -0.2042
     12 C         140.9338  143.2154  169.3684 C.ar    1  UNL1        0.0309
     13 C         141.6487  142.4322  168.3075 C.ar    1  UNL1        0.0172
     14 C         142.6139  138.8766  160.9972 C.ar    1  UNL1        0.2033
     15 N         144.0238  139.3632  161.1568 N.ar    1  UNL1       -0.0560
     16 O         144.2585  139.6345  162.6132 O.2     1  UNL1       -0.3370
     17 C         142.9936  139.3156  163.3538 C.ar    1  UNL1        0.2383
     18 N         141.9772  138.8472  162.3550 N.ar    1  UNL1       -0.1907
     19 C         142.9081  136.7960  156.2448 C.3     1  UNL1        0.0310
     20 C         142.1033  137.4474  157.3302 C.ar    1  UNL1       -0.0218
     21 C         140.6408  137.7099  157.1247 C.ar    1  UNL1       -0.0043
     22 C         139.8360  138.3613  158.2101 C.ar    1  UNL1       -0.0002
     23 C         140.4937  138.7502  159.5009 C.ar    1  UNL1        0.0031
     24 C         141.9561  138.4877  159.7063 C.ar    1  UNL1        0.0388
     25 C         142.7609  137.8363  158.6210 C.ar    1  UNL1       -0.0011
@<TRIPOS>BOND
     1    19    20    1
     2    20    21   ar
     3    21    22   ar
     4    22    23   ar
     5    23    24   ar
     6    24    14    1
     7    14    15   ar
     8    15    16   ar
     9    16    17   ar
    10    17     1    1
    11     1     2    1
    12     2     3    1
    13     3     4    2
    14     3     5   am
    15     5     7    1
    16     7     8   ar
    17     8     9   ar
    18     9    10   ar
    19    10    11    1
    20    10    12   ar
    21    12    13   ar
    22     5     6    1
    23    17    18   ar
    24    24    25   ar
    25    25    20   ar
    26    18    14   ar
    27     6     1    1
    28    13     7   ar
@<TRIPOS>MOLECULE
*****
 25 28 0 0 0
SMALL
GASTEIGER

@<TRIPOS>ATOM
      1 C         142.7140  138.4372  160.9205 C.3     1  UNL1        0.1084
      2 C         143.7620  138.5541  161.9873 C.3     1  UNL1        0.0966
      3 C         143.0659  138.6483  163.3126 C.2     1  UNL1        0.2299
      4 O         143.7312  138.7783  164.6507 O.2     1  UNL1       -0.2745
      5 N         141.5876  138.5896  163.0650 N.am    1  UNL1       -0.2581
      6 C         141.3702  138.4592  161.5866 C.3     1  UNL1        0.1079
      7 C         140.5152  138.6506  164.1119 C.ar    1  UNL1        0.0540
      8 C         140.3028  139.9122  164.8952 C.ar    1  UNL1        0.0172
      9 C         139.2303  139.9732  165.9423 C.ar    1  UNL1        0.0309
     10 C         138.3704  138.7728  166.2058 C.ar    1  UNL1        0.1402
     11 F         137.2979  138.8339  167.2529 F       1  UNL1       -0.2042
     12 C         138.5828  137.5114  165.4226 C.ar    1  UNL1        0.0309
     13 C         139.6552  137.4503  164.3756 C.ar    1  UNL1        0.0172
     14 C         142.9731  137.4909  157.1652 C.ar    1  UNL1        0.2033
     15 N         143.7327  138.7841  157.1913 N.ar    1  UNL1       -0.0560
     16 O         143.7281  139.2960  158.6012 O.2     1  UNL1       -0.3370
     17 C         142.9657  138.3191  159.4465 C.ar    1  UNL1        0.2383
     18 N         142.4991  137.2035  158.5590 N.ar    1  UNL1       -0.1907
     19 C         143.0242  132.8303  154.8680 C.3     1  UNL1        0.0310
     20 C         142.7558  134.3049  154.8087 C.ar    1  UNL1       -0.0218
     21 C         142.2445  134.9239  153.5417 C.ar    1  UNL1       -0.0043
     22 C         141.9761  136.3985  153.4824 C.ar    1  UNL1       -0.0002
     23 C         142.2190  137.2541  154.6903 C.ar    1  UNL1        0.0031
     24 C         142.7302  136.6352  155.9573 C.ar    1  UNL1        0.0388
     25 C         142.9986  135.1606  156.0165 C.ar    1  UNL1       -0.0011
@<TRIPOS>BOND
     1    19    20    1
     2    20    21   ar
     3    21    22   ar
     4    22    23   ar
     5    23    24   ar
     6    24    14    1
     7    14    15   ar
     8    15    16   ar
     9    16    17   ar
    10    17     1    1
    11     1     2    1
    12     2     3    1
    13     3     4    2
    14     3     5   am
    15     5     7    1
    16     7     8   ar
    17     8     9   ar
    18     9    10   ar
    19    10    11    1
    20    10    12   ar
    21    12    13   ar
    22     5     6    1
    23    17    18   ar
    24    24    25   ar
    25    25    20   ar
    26    18    14   ar
    27     6     1    1
    28    13     7   ar
@<TRIPOS>MOLECULE
*****
 25 28 0 0 0
SMALL
GASTEIGER

@<TRIPOS>ATOM
      1 C         139.0651  140.8445  164.6551 C.3     1  UNL1        0.1084
      2 C         138.5043  139.8679  165.6459 C.3     1  UNL1        0.0966
      3 C         139.1370  140.1438  166.9777 C.2     1  UNL1        0.2299
      4 O         138.8655  139.4027  168.2532 O.2     1  UNL1       -0.2745
      5 N         140.0888  141.2909  166.8099 N.am    1  UNL1       -0.2581
      6 C         140.0444  141.7240  165.3745 C.3     1  UNL1        0.1079
      7 C         140.9362  141.8983  167.8883 C.ar    1  UNL1        0.0540
      8 C         140.3248  142.8440  168.8793 C.ar    1  UNL1        0.0172
      9 C         141.1723  143.4514  169.9577 C.ar    1  UNL1        0.0309
     10 C         142.6310  143.1131  170.0451 C.ar    1  UNL1        0.1402
     11 F         143.4784  143.7205  171.1235 F       1  UNL1       -0.2042
     12 C         143.2424  142.1675  169.0542 C.ar    1  UNL1        0.0309
     13 C         142.3950  141.5600  167.9757 C.ar    1  UNL1        0.0172
     14 C         138.6216  141.6411  160.8823 C.ar    1  UNL1        0.2033
     15 N         137.7011  140.4674  161.0409 N.ar    1  UNL1       -0.0560
     16 O         137.7551  140.0261  162.4734 O.2     1  UNL1       -0.3370
     17 C         138.7091  140.9271  163.2003 C.ar    1  UNL1        0.2383
     18 N         139.2446  141.9252  162.2169 N.ar    1  UNL1       -0.1907
     19 C         140.9622  145.5283  158.3502 C.3     1  UNL1        0.0310
     20 C         140.0449  144.3415  158.3461 C.ar    1  UNL1       -0.0218
     21 C         139.3808  143.9113  157.0718 C.ar    1  UNL1       -0.0043
     22 C         138.4635  142.7245  157.0677 C.ar    1  UNL1       -0.0002
     23 C         138.2104  141.9677  158.3378 C.ar    1  UNL1        0.0031
     24 C         138.8746  142.3979  159.6121 C.ar    1  UNL1        0.0388
     25 C         139.7919  143.5847  159.6162 C.ar    1  UNL1       -0.0011
@<TRIPOS>BOND
     1    19    20    1
     2    20    21   ar
     3    21    22   ar
     4    22    23   ar
     5    23    24   ar
     6    24    14    1
     7    14    15   ar
     8    15    16   ar
     9    16    17   ar
    10    17     1    1
    11     1     2    1
    12     2     3    1
    13     3     4    2
    14     3     5   am
    15     5     7    1
    16     7     8   ar
    17     8     9   ar
    18     9    10   ar
    19    10    11    1
    20    10    12   ar
    21    12    13   ar
    22     5     6    1
    23    17    18   ar
    24    24    25   ar
    25    25    20   ar
    26    18    14   ar
    27     6     1    1
    28    13     7   ar
@<TRIPOS>MOLECULE
*****
 25 28 0 0 0
SMALL
GASTEIGER

@<TRIPOS>ATOM
      1 C         140.9640  143.3683  163.2696 C.3     1  UNL1        0.1084
      2 C         141.3089  141.9116  163.1753 C.3     1  UNL1        0.0966
      3 C         141.6012  141.4139  164.5598 C.2     1  UNL1        0.2299
      4 O         141.9895  140.0130  164.9293 O.2     1  UNL1       -0.2745
      5 N         141.4368  142.5630  165.5098 N.am    1  UNL1       -0.2581
      6 C         141.0431  143.7709  164.7124 C.3     1  UNL1        0.1079
      7 C         141.6321  142.5129  166.9961 C.ar    1  UNL1        0.0540
      8 C         140.4903  142.8362  167.9138 C.ar    1  UNL1        0.0172
      9 C         140.6856  142.7861  169.4002 C.ar    1  UNL1        0.0309
     10 C         142.0224  142.4127  169.9689 C.ar    1  UNL1        0.1402
     11 F         142.2176  142.3626  171.4554 F       1  UNL1       -0.2042
     12 C         143.1640  142.0894  169.0513 C.ar    1  UNL1        0.0309
     13 C         142.9689  142.1395  167.5649 C.ar    1  UNL1        0.0172
     14 C         140.4987  145.2495  159.9066 C.ar    1  UNL1        0.2033
     15 N         139.5979  146.0405  160.8082 N.ar    1  UNL1       -0.0560
     16 O         139.6625  145.4322  162.1777 O.2     1  UNL1       -0.3370
     17 C         140.6033  144.2651  162.1225 C.ar    1  UNL1        0.2383
     18 N         141.1201  144.1523  160.7189 N.ar    1  UNL1       -0.1907
     19 C         138.9791  147.3539  155.4052 C.3     1  UNL1        0.0310
     20 C         139.9766  146.5623  156.1979 C.ar    1  UNL1       -0.0218
     21 C         141.2117  146.0313  155.5327 C.ar    1  UNL1       -0.0043
     22 C         142.2091  145.2397  156.3255 C.ar    1  UNL1       -0.0002
     23 C         141.9715  144.9791  157.7834 C.ar    1  UNL1        0.0031
     24 C         140.7364  145.5101  158.4486 C.ar    1  UNL1        0.0388
     25 C         139.7389  146.3017  157.6558 C.ar    1  UNL1       -0.0011
@<TRIPOS>BOND
     1    19    20    1
     2    20    21   ar
     3    21    22   ar
     4    22    23   ar
     5    23    24   ar
     6    24    14    1
     7    14    15   ar
     8    15    16   ar
     9    16    17   ar
    10    17     1    1
    11     1     2    1
    12     2     3    1
    13     3     4    2
    14     3     5   am
    15     5     7    1
    16     7     8   ar
    17     8     9   ar
    18     9    10   ar
    19    10    11    1
    20    10    12   ar
    21    12    13   ar
    22     5     6    1
    23    17    18   ar
    24    24    25   ar
    25    25    20   ar
    26    18    14   ar
    27     6     1    1
    28    13     7   ar
@<TRIPOS>MOLECULE
*****
 25 28 0 0 0
SMALL
GASTEIGER

@<TRIPOS>ATOM
      1 C         142.5240  143.5434  162.3183 C.3     1  UNL1        0.1084
      2 C         144.0176  143.4210  162.3823 C.3     1  UNL1        0.0966
      3 C         144.3632  142.5824  163.5770 C.2     1  UNL1        0.2299
      4 O         145.7460  142.2058  164.0196 O.2     1  UNL1       -0.2745
      5 N         143.0832  142.1867  164.2515 N.am    1  UNL1       -0.2581
      6 C         141.9465  142.7806  163.4736 C.3     1  UNL1        0.1079
      7 C         142.9613  141.3448  165.4869 C.ar    1  UNL1        0.0540
      8 C         142.7441  141.9968  166.8203 C.ar    1  UNL1        0.0172
      9 C         142.6223  141.1549  168.0558 C.ar    1  UNL1        0.0309
     10 C         142.7176  139.6612  167.9579 C.ar    1  UNL1        0.1402
     11 F         142.5957  138.8193  169.1934 F       1  UNL1       -0.2042
     12 C         142.9347  139.0092  166.6246 C.ar    1  UNL1        0.0309
     13 C         143.0566  139.8511  165.3891 C.ar    1  UNL1        0.0172
     14 C         141.0356  145.2394  159.1603 C.ar    1  UNL1        0.2033
     15 N         140.0554  145.6714  160.2104 N.ar    1  UNL1       -0.0560
     16 O         140.4937  145.0886  161.5213 O.2     1  UNL1       -0.3370
     17 C         141.7447  144.2965  161.2812 C.ar    1  UNL1        0.2383
     18 N         142.0796  144.3897  159.8221 N.ar    1  UNL1       -0.1907
     19 C         142.9932  144.8676  154.3613 C.3     1  UNL1        0.0310
     20 C         141.9600  145.4089  155.3045 C.ar    1  UNL1       -0.0218
     21 C         140.8725  146.3055  154.7914 C.ar    1  UNL1       -0.0043
     22 C         139.8393  146.8468  155.7346 C.ar    1  UNL1       -0.0002
     23 C         139.8937  146.4915  157.1908 C.ar    1  UNL1        0.0031
     24 C         140.9812  145.5948  157.7039 C.ar    1  UNL1        0.0388
     25 C         142.0143  145.0535  156.7608 C.ar    1  UNL1       -0.0011
@<TRIPOS>BOND
     1    19    20    1
     2    20    21   ar
     3    21    22   ar
     4    22    23   ar
     5    23    24   ar
     6    24    14    1
     7    14    15   ar
     8    15    16   ar
     9    16    17   ar
    10    17     1    1
    11     1     2    1
    12     2     3    1
    13     3     4    2
    14     3     5   am
    15     5     7    1
    16     7     8   ar
    17     8     9   ar
    18     9    10   ar
    19    10    11    1
    20    10    12   ar
    21    12    13   ar
    22     5     6    1
    23    17    18   ar
    24    24    25   ar
    25    25    20   ar
    26    18    14   ar
    27     6     1    1
    28    13     7   ar
@<TRIPOS>MOLECULE
*****
 25 28 0 0 0
SMALL
GASTEIGER

@<TRIPOS>ATOM
      1 C         142.5702  138.0095  158.8714 C.3     1  UNL1        0.1084
      2 C         141.7778  139.2732  159.0298 C.3     1  UNL1        0.0966
      3 C         141.7747  139.6392  160.4844 C.2     1  UNL1        0.2299
      4 O         141.0996  140.8331  161.0917 O.2     1  UNL1       -0.2745
      5 N         142.5653  138.6017  161.2251 N.am    1  UNL1       -0.2581
      6 C         143.0569  137.5946  160.2282 C.3     1  UNL1        0.1079
      7 C         142.8195  138.5760  162.7031 C.ar    1  UNL1        0.0540
      8 C         144.0874  139.1562  163.2562 C.ar    1  UNL1        0.0172
      9 C         144.3417  139.1305  164.7344 C.ar    1  UNL1        0.0309
     10 C         143.3281  138.5247  165.6592 C.ar    1  UNL1        0.1402
     11 F         143.5823  138.4990  167.1374 F       1  UNL1       -0.2042
     12 C         142.0602  137.9445  165.1062 C.ar    1  UNL1        0.0309
     13 C         141.8059  137.9702  163.6281 C.ar    1  UNL1        0.0172
     14 C         143.1001  135.5213  155.9400 C.ar    1  UNL1        0.2033
     15 N         143.3611  136.8319  155.2585 N.ar    1  UNL1       -0.0560
     16 O         143.1944  137.9235  156.2737 O.2     1  UNL1       -0.3370
     17 C         142.8303  137.2876  157.5826 C.ar    1  UNL1        0.2383
     18 N         142.7721  135.8030  157.3763 N.ar    1  UNL1       -0.1907
     19 C         144.8727  130.6371  155.8873 C.3     1  UNL1        0.0310
     20 C         144.0435  131.7248  155.2715 C.ar    1  UNL1       -0.0218
     21 C         143.2713  131.4582  154.0135 C.ar    1  UNL1       -0.0043
     22 C         142.4421  132.5459  153.3976 C.ar    1  UNL1       -0.0002
     23 C         142.3850  133.9002  154.0397 C.ar    1  UNL1        0.0031
     24 C         143.1572  134.1669  155.2977 C.ar    1  UNL1        0.0388
     25 C         143.9864  133.0792  155.9136 C.ar    1  UNL1       -0.0011
@<TRIPOS>BOND
     1    19    20    1
     2    20    21   ar
     3    21    22   ar
     4    22    23   ar
     5    23    24   ar
     6    24    14    1
     7    14    15   ar
     8    15    16   ar
     9    16    17   ar
    10    17     1    1
    11     1     2    1
    12     2     3    1
    13     3     4    2
    14     3     5   am
    15     5     7    1
    16     7     8   ar
    17     8     9   ar
    18     9    10   ar
    19    10    11    1
    20    10    12   ar
    21    12    13   ar
    22     5     6    1
    23    17    18   ar
    24    24    25   ar
    25    25    20   ar
    26    18    14   ar
    27     6     1    1
    28    13     7   ar
