@<TRIPOS>MOLECULE
*****
 29 31 0 0 0
SMALL
GASTEIGER

@<TRIPOS>ATOM
      1 C         138.5767  139.6384  165.1524 C.ar    1  UNL1        0.0795
      2 C         138.4007  140.0100  163.7098 C.ar    1  UNL1        0.0398
      3 C         138.8285  141.4380  163.5434 C.ar    1  UNL1        0.1329
      4 N         139.2689  141.9490  164.8831 N.ar    1  UNL1       -0.2423
      5 N         139.1134  140.8368  165.8775 N.ar    1  UNL1       -0.1733
      6 C         138.8002  137.6208  164.5365 C.3     1  UNL1        0.0060
      7 C         138.2700  138.3029  165.7627 C.3     1  UNL1        0.0372
      8 C         137.7398  138.9851  166.9890 C.3     1  UNL1        0.0060
      9 C         137.9633  136.9675  166.3730 C.3     1  UNL1        0.0060
     10 C         138.8177  142.2180  162.2622 C.2     1  UNL1        0.2683
     11 O         137.6111  143.0259  161.8862 O.2     1  UNL1       -0.2681
     12 N         140.0134  142.1901  161.3569 N.am    1  UNL1       -0.2594
     13 H         140.8054  141.6598  161.6037 H       1  UNL1        0.1571
     14 C         140.0027  142.9700  160.0757 C.ar    1  UNL1        0.1655
     15 N         140.7004  144.2754  159.8324 N.ar    1  UNL1       -0.2269
     16 C         140.4212  144.6937  158.4192 C.ar    1  UNL1        0.0831
     17 C         139.5510  143.6470  157.7892 C.ar    1  UNL1        0.0542
     18 S         139.2923  142.5817  158.8130 S.2     1  UNL1       -0.0511
     19 C         140.9240  145.9400  157.7530 C.3     1  UNL1        0.1123
     20 N         142.3987  146.1993  157.6622 N.3     1  UNL1       -0.3162
     21 H         142.7772  146.3418  158.5986 H       1  UNL1        0.1192
     22 H         142.5632  147.0333  157.0984 H       1  UNL1        0.1192
     23 C         139.7760  143.3298  165.1768 C.3     1  UNL1        0.1539
     24 C         141.1893  143.6983  164.8349 C.ar    1  UNL1        0.0021
     25 C         142.3272  142.8744  165.3605 C.ar    1  UNL1       -0.0023
     26 C         143.7405  143.2429  165.0186 C.ar    1  UNL1       -0.0003
     27 C         144.0158  144.4354  164.1512 C.ar    1  UNL1       -0.0000
     28 C         142.8778  145.2593  163.6257 C.ar    1  UNL1       -0.0003
     29 C         141.4646  144.8908  163.9676 C.ar    1  UNL1       -0.0023
@<TRIPOS>BOND
     1     6     7    1
     2     7     8    1
     3     7     9    1
     4     7     1    1
     5     1     2   ar
     6     2     3   ar
     7     3    10    1
     8    10    11    2
     9    10    12   am
    10    12    14    1
    11    14    15   ar
    12    15    16   ar
    13    16    19    1
    14    19    20    1
    15    16    17   ar
    16    17    18   ar
    17     3     4   ar
    18     4    23    1
    19    23    24    1
    20    24    25   ar
    21    25    26   ar
    22    26    27   ar
    23    27    28   ar
    24    28    29   ar
    25     4     5   ar
    26     5     1   ar
    27    18    14   ar
    28    29    24   ar
    29    12    13    1
    30    20    21    1
    31    20    22    1
@<TRIPOS>MOLECULE
*****
 29 31 0 0 0
SMALL
GASTEIGER

@<TRIPOS>ATOM
      1 C         142.6342  141.7099  167.8409 C.ar    1  UNL1        0.0795
      2 C         143.2055  142.2336  166.5566 C.ar    1  UNL1        0.0398
      3 C         143.2808  141.0942  165.5840 C.ar    1  UNL1        0.1329
      4 N         142.7561  139.8662  166.2672 N.ar    1  UNL1       -0.2423
      5 N         142.3565  140.2467  167.6620 N.ar    1  UNL1       -0.1733
      6 C         140.9652  142.7344  168.6560 C.3     1  UNL1        0.0060
      7 C         142.3845  142.5090  169.0855 C.3     1  UNL1        0.0372
      8 C         143.8040  142.2835  169.5151 C.3     1  UNL1        0.0060
      9 C         142.1349  143.3080  170.3301 C.3     1  UNL1        0.0060
     10 C         143.7912  141.1695  164.1755 C.2     1  UNL1        0.2683
     11 O         145.2254  140.8452  163.8792 O.2     1  UNL1       -0.2681
     12 N         142.8675  141.5692  163.0633 N.am    1  UNL1       -0.2594
     13 H         141.9261  141.7821  163.2578 H       1  UNL1        0.1571
     14 C         143.3779  141.6445  161.6549 C.ar    1  UNL1        0.1655
     15 N         143.1715  140.6126  160.5859 N.ar    1  UNL1       -0.2269
     16 C         143.8503  141.0953  159.3385 C.ar    1  UNL1        0.0831
     17 C         144.4763  142.4255  159.6364 C.ar    1  UNL1        0.0542
     18 S         144.1843  142.7649  161.0680 S.2     1  UNL1       -0.0511
     19 C         143.8953  140.3744  158.0239 C.3     1  UNL1        0.1123
     20 N         145.1762  140.3125  157.2458 N.3     1  UNL1       -0.3162
     21 H         145.4309  141.2501  156.9350 H       1  UNL1        0.1192
     22 H         145.0522  139.7073  156.4342 H       1  UNL1        0.1192
     23 C         142.6497  138.4979  165.6618 C.3     1  UNL1        0.1539
     24 C         141.5901  138.2103  164.6398 C.ar    1  UNL1        0.0021
     25 C         140.1551  138.0918  165.0601 C.ar    1  UNL1       -0.0023
     26 C         139.0955  137.8041  164.0381 C.ar    1  UNL1       -0.0003
     27 C         139.4709  137.6350  162.5957 C.ar    1  UNL1       -0.0000
     28 C         140.9059  137.7535  162.1754 C.ar    1  UNL1       -0.0003
     29 C         141.9655  138.0412  163.1974 C.ar    1  UNL1       -0.0023
@<TRIPOS>BOND
     1     6     7    1
     2     7     8    1
     3     7     9    1
     4     7     1    1
     5     1     2   ar
     6     2     3   ar
     7     3    10    1
     8    10    11    2
     9    10    12   am
    10    12    14    1
    11    14    15   ar
    12    15    16   ar
    13    16    19    1
    14    19    20    1
    15    16    17   ar
    16    17    18   ar
    17     3     4   ar
    18     4    23    1
    19    23    24    1
    20    24    25   ar
    21    25    26   ar
    22    26    27   ar
    23    27    28   ar
    24    28    29   ar
    25     4     5   ar
    26     5     1   ar
    27    18    14   ar
    28    29    24   ar
    29    12    13    1
    30    20    21    1
    31    20    22    1
@<TRIPOS>MOLECULE
*****
 29 31 0 0 0
SMALL
GASTEIGER

@<TRIPOS>ATOM
      1 C         139.9215  143.8710  161.4165 C.ar    1  UNL1        0.0795
      2 C         140.6632  143.9521  162.7178 C.ar    1  UNL1        0.0398
      3 C         139.9304  143.1129  163.7222 C.ar    1  UNL1        0.1329
      4 N         138.7358  142.5131  163.0417 N.ar    1  UNL1       -0.2423
      5 N         138.7303  142.9816  161.6167 N.ar    1  UNL1       -0.1733
      6 C         140.1155  145.8916  160.8006 C.3     1  UNL1        0.0060
      7 C         140.3038  144.5585  160.1394 C.3     1  UNL1        0.0372
      8 C         140.4922  143.2253  159.4781 C.3     1  UNL1        0.0060
      9 C         140.6862  145.2460  158.8622 C.3     1  UNL1        0.0060
     10 C         140.3233  142.9092  165.1554 C.2     1  UNL1        0.2683
     11 O         139.6978  143.7472  166.2308 O.2     1  UNL1       -0.2681
     12 N         141.3417  141.8677  165.5133 N.am    1  UNL1       -0.2594
     13 H         141.7522  141.3177  164.8075 H       1  UNL1        0.1571
     14 C         141.7346  141.6640  166.9465 C.ar    1  UNL1        0.1655
     15 N         140.9389  140.9267  167.9826 N.ar    1  UNL1       -0.2269
     16 C         141.7047  140.9690  169.2717 C.ar    1  UNL1        0.0831
     17 C         142.9735  141.7323  169.0324 C.ar    1  UNL1        0.0542
     18 S         142.9920  142.1619  167.5954 S.2     1  UNL1       -0.0511
     19 C         141.2767  140.3555  170.5718 C.3     1  UNL1        0.1123
     20 N         141.9866  140.7187  171.8423 N.3     1  UNL1       -0.3162
     21 H         142.9484  140.3812  171.8028 H       1  UNL1        0.1192
     22 H         141.5079  140.2894  172.6340 H       1  UNL1        0.1192
     23 C         137.7243  141.6043  163.6749 C.3     1  UNL1        0.1539
     24 C         138.1324  140.2394  164.1446 C.ar    1  UNL1        0.0021
     25 C         138.5316  139.1917  163.1482 C.ar    1  UNL1       -0.0023
     26 C         138.9396  137.8268  163.6179 C.ar    1  UNL1       -0.0003
     27 C         138.9485  137.5097  165.0840 C.ar    1  UNL1       -0.0000
     28 C         138.5493  138.5575  166.0804 C.ar    1  UNL1       -0.0003
     29 C         138.1412  139.9223  165.6107 C.ar    1  UNL1       -0.0023
@<TRIPOS>BOND
     1     6     7    1
     2     7     8    1
     3     7     9    1
     4     7     1    1
     5     1     2   ar
     6     2     3   ar
     7     3    10    1
     8    10    11    2
     9    10    12   am
    10    12    14    1
    11    14    15   ar
    12    15    16   ar
    13    16    19    1
    14    19    20    1
    15    16    17   ar
    16    17    18   ar
    17     3     4   ar
    18     4    23    1
    19    23    24    1
    20    24    25   ar
    21    25    26   ar
    22    26    27   ar
    23    27    28   ar
    24    28    29   ar
    25     4     5   ar
    26     5     1   ar
    27    18    14   ar
    28    29    24   ar
    29    12    13    1
    30    20    21    1
    31    20    22    1
@<TRIPOS>MOLECULE
*****
 29 31 0 0 0
SMALL
GASTEIGER

@<TRIPOS>ATOM
      1 C         140.0437  141.1208  168.7541 C.ar    1  UNL1        0.0795
      2 C         140.3843  141.8998  167.5183 C.ar    1  UNL1        0.0398
      3 C         139.8948  141.1239  166.3316 C.ar    1  UNL1        0.1329
      4 N         139.2516  139.8654  166.8339 N.ar    1  UNL1       -0.2423
      5 N         139.3436  139.8635  168.3311 N.ar    1  UNL1       -0.1733
      6 C         140.4503  140.0841  170.5596 C.3     1  UNL1        0.0060
      7 C         140.3494  141.5277  170.1651 C.3     1  UNL1        0.0372
      8 C         140.2486  142.9715  169.7706 C.3     1  UNL1        0.0060
      9 C         140.6552  141.9347  171.5761 C.3     1  UNL1        0.0060
     10 C         140.0255  141.5345  164.8948 C.2     1  UNL1        0.2683
     11 O         141.2992  141.2636  164.1503 O.2     1  UNL1       -0.2681
     12 N         138.8825  142.2160  164.2025 N.am    1  UNL1       -0.2594
     13 H         138.0466  142.3938  164.6911 H       1  UNL1        0.1571
     14 C         139.0133  142.6265  162.7657 C.ar    1  UNL1        0.1655
     15 N         139.8506  143.7566  162.2444 N.ar    1  UNL1       -0.2269
     16 C         139.6844  143.8076  160.7546 C.ar    1  UNL1        0.0831
     17 C         138.7445  142.7092  160.3550 C.ar    1  UNL1        0.0542
     18 S         138.3296  141.9792  161.5980 S.2     1  UNL1       -0.0511
     19 C         140.3427  144.7855  159.8270 C.3     1  UNL1        0.1123
     20 N         141.6388  145.4327  160.2161 N.3     1  UNL1       -0.3162
     21 H         141.4878  146.0380  161.0230 H       1  UNL1        0.1192
     22 H         141.9895  145.9878  159.4355 H       1  UNL1        0.1192
     23 C         138.6262  138.7964  165.9877 C.3     1  UNL1        0.1539
     24 C         139.2851  138.3706  164.7092 C.ar    1  UNL1        0.0021
     25 C         140.6593  137.7699  164.7376 C.ar    1  UNL1       -0.0023
     26 C         141.3182  137.3440  163.4591 C.ar    1  UNL1       -0.0003
     27 C         140.6029  137.5189  162.1523 C.ar    1  UNL1       -0.0000
     28 C         139.2288  138.1196  162.1239 C.ar    1  UNL1       -0.0003
     29 C         138.5699  138.5454  163.4024 C.ar    1  UNL1       -0.0023
@<TRIPOS>BOND
     1     6     7    1
     2     7     8    1
     3     7     9    1
     4     7     1    1
     5     1     2   ar
     6     2     3   ar
     7     3    10    1
     8    10    11    2
     9    10    12   am
    10    12    14    1
    11    14    15   ar
    12    15    16   ar
    13    16    19    1
    14    19    20    1
    15    16    17   ar
    16    17    18   ar
    17     3     4   ar
    18     4    23    1
    19    23    24    1
    20    24    25   ar
    21    25    26   ar
    22    26    27   ar
    23    27    28   ar
    24    28    29   ar
    25     4     5   ar
    26     5     1   ar
    27    18    14   ar
    28    29    24   ar
    29    12    13    1
    30    20    21    1
    31    20    22    1
@<TRIPOS>MOLECULE
*****
 29 31 0 0 0
SMALL
GASTEIGER

@<TRIPOS>ATOM
      1 C         139.8412  144.0861  159.2380 C.ar    1  UNL1        0.0795
      2 C         139.2263  142.8317  159.7847 C.ar    1  UNL1        0.0398
      3 C         139.2818  142.9028  161.2820 C.ar    1  UNL1        0.1329
      4 N         139.9309  144.2009  161.6607 N.ar    1  UNL1       -0.2423
      5 N         140.2766  144.9322  160.3975 N.ar    1  UNL1       -0.1733
      6 C         139.1344  143.2610  157.4161 C.3     1  UNL1        0.0060
      7 C         139.9937  144.4332  157.7868 C.3     1  UNL1        0.0372
      8 C         140.8531  145.6055  158.1575 C.3     1  UNL1        0.0060
      9 C         140.1463  144.7803  156.3355 C.3     1  UNL1        0.0060
     10 C         138.7769  141.8589  162.2335 C.2     1  UNL1        0.2683
     11 O         137.3041  141.7195  162.4813 O.2     1  UNL1       -0.2681
     12 N         139.7447  140.9543  162.9372 N.am    1  UNL1       -0.2594
     13 H         140.7113  141.0458  162.7746 H       1  UNL1        0.1571
     14 C         139.2397  139.9104  163.8886 C.ar    1  UNL1        0.1655
     15 N         138.6361  140.1654  165.2379 N.ar    1  UNL1       -0.2269
     16 C         138.2730  138.8409  165.8411 C.ar    1  UNL1        0.0831
     17 C         138.6522  137.7673  164.8646 C.ar    1  UNL1        0.0542
     18 S         139.2497  138.4283  163.6579 S.2     1  UNL1       -0.0511
     19 C         137.6416  138.6274  167.1848 C.3     1  UNL1        0.1123
     20 N         136.8421  137.3861  167.4492 N.3     1  UNL1       -0.3162
     21 H         136.0052  137.3900  166.8662 H       1  UNL1        0.1192
     22 H         136.5715  137.3589  168.4323 H       1  UNL1        0.1192
     23 C         140.1890  144.6831  163.0574 C.3     1  UNL1        0.1539
     24 C         141.4701  144.3238  163.7503 C.ar    1  UNL1        0.0021
     25 C         141.5142  143.1509  164.6842 C.ar    1  UNL1       -0.0023
     26 C         142.7952  142.7916  165.3770 C.ar    1  UNL1       -0.0003
     27 C         144.0320  143.6052  165.1358 C.ar    1  UNL1       -0.0000
     28 C         143.9879  144.7781  164.2018 C.ar    1  UNL1       -0.0003
     29 C         142.7069  145.1374  163.5090 C.ar    1  UNL1       -0.0023
@<TRIPOS>BOND
     1     6     7    1
     2     7     8    1
     3     7     9    1
     4     7     1    1
     5     1     2   ar
     6     2     3   ar
     7     3    10    1
     8    10    11    2
     9    10    12   am
    10    12    14    1
    11    14    15   ar
    12    15    16   ar
    13    16    19    1
    14    19    20    1
    15    16    17   ar
    16    17    18   ar
    17     3     4   ar
    18     4    23    1
    19    23    24    1
    20    24    25   ar
    21    25    26   ar
    22    26    27   ar
    23    27    28   ar
    24    28    29   ar
    25     4     5   ar
    26     5     1   ar
    27    18    14   ar
    28    29    24   ar
    29    12    13    1
    30    20    21    1
    31    20    22    1
@<TRIPOS>MOLECULE
*****
 29 31 0 0 0
SMALL
GASTEIGER

@<TRIPOS>ATOM
      1 C         140.7722  140.1333  168.4025 C.ar    1  UNL1        0.0795
      2 C         141.7472  139.7366  167.3338 C.ar    1  UNL1        0.0398
      3 C         140.9747  139.4791  166.0740 C.ar    1  UNL1        0.1329
      4 N         139.5223  139.7166  166.3642 N.ar    1  UNL1       -0.2423
      5 N         139.3972  140.1209  167.8033 N.ar    1  UNL1       -0.1733
      6 C         139.6543  140.6493  170.1299 C.3     1  UNL1        0.0060
      7 C         141.1126  140.4812  169.8213 C.3     1  UNL1        0.0372
      8 C         142.5709  140.3132  169.5128 C.3     1  UNL1        0.0060
      9 C         141.4529  140.8292  171.2401 C.3     1  UNL1        0.0060
     10 C         141.5530  139.0580  164.7557 C.2     1  UNL1        0.2683
     11 O         141.7954  137.6049  164.4728 O.2     1  UNL1       -0.2681
     12 N         141.8891  140.0898  163.7201 N.am    1  UNL1       -0.2594
     13 H         141.7300  141.0435  163.9057 H       1  UNL1        0.1571
     14 C         142.4674  139.6687  162.4017 C.ar    1  UNL1        0.1655
     15 N         141.6933  139.3948  161.1465 N.ar    1  UNL1       -0.2269
     16 C         142.6688  139.0044  160.0761 C.ar    1  UNL1        0.0831
     17 C         144.0460  139.0370  160.6697 C.ar    1  UNL1        0.0542
     18 S         143.9215  139.4476  162.1070 S.2     1  UNL1       -0.0511
     19 C         142.3273  138.6445  158.6605 C.3     1  UNL1        0.1123
     20 N         142.8806  137.3906  158.0510 N.3     1  UNL1       -0.3162
     21 H         143.8938  137.4720  157.9666 H       1  UNL1        0.1192
     22 H         142.4724  137.2532  157.1264 H       1  UNL1        0.1192
     23 C         138.3933  139.5747  165.3869 C.3     1  UNL1        0.1539
     24 C         138.2025  140.5987  164.3075 C.ar    1  UNL1        0.0021
     25 C         138.1643  142.0572  164.6557 C.ar    1  UNL1       -0.0023
     26 C         137.9735  143.0812  163.5764 C.ar    1  UNL1       -0.0003
     27 C         137.8208  142.6467  162.1488 C.ar    1  UNL1       -0.0000
     28 C         137.8590  141.1882  161.8006 C.ar    1  UNL1       -0.0003
     29 C         138.0498  140.1642  162.8800 C.ar    1  UNL1       -0.0023
@<TRIPOS>BOND
     1     6     7    1
     2     7     8    1
     3     7     9    1
     4     7     1    1
     5     1     2   ar
     6     2     3   ar
     7     3    10    1
     8    10    11    2
     9    10    12   am
    10    12    14    1
    11    14    15   ar
    12    15    16   ar
    13    16    19    1
    14    19    20    1
    15    16    17   ar
    16    17    18   ar
    17     3     4   ar
    18     4    23    1
    19    23    24    1
    20    24    25   ar
    21    25    26   ar
    22    26    27   ar
    23    27    28   ar
    24    28    29   ar
    25     4     5   ar
    26     5     1   ar
    27    18    14   ar
    28    29    24   ar
    29    12    13    1
    30    20    21    1
    31    20    22    1
@<TRIPOS>MOLECULE
*****
 29 31 0 0 0
SMALL
GASTEIGER

@<TRIPOS>ATOM
      1 C         140.2926  141.3057  168.1824 C.ar    1  UNL1        0.0795
      2 C         141.3538  141.7329  167.2121 C.ar    1  UNL1        0.0398
      3 C         141.3368  140.7772  166.0561 C.ar    1  UNL1        0.1329
      4 N         140.2651  139.7594  166.3118 N.ar    1  UNL1       -0.2423
      5 N         139.6198  140.0860  167.6260 N.ar    1  UNL1       -0.1733
      6 C         139.2800  140.7312  169.9556 C.3     1  UNL1        0.0060
      7 C         139.9623  141.9798  169.4810 C.3     1  UNL1        0.0372
      8 C         140.6446  143.2286  169.0063 C.3     1  UNL1        0.0060
      9 C         139.6320  142.6540  170.7796 C.3     1  UNL1        0.0060
     10 C         142.2340  140.8301  164.8551 C.2     1  UNL1        0.2683
     11 O         143.3577  139.8465  164.7145 O.2     1  UNL1       -0.2681
     12 N         142.0076  141.8667  163.7947 N.am    1  UNL1       -0.2594
     13 H         141.2700  142.5123  163.8870 H       1  UNL1        0.1571
     14 C         142.9047  141.9196  162.5938 C.ar    1  UNL1        0.1655
     15 N         142.6198  141.3107  161.2529 N.ar    1  UNL1       -0.2269
     16 C         143.7833  141.6055  160.3533 C.ar    1  UNL1        0.0831
     17 C         144.7874  142.3965  161.1382 C.ar    1  UNL1        0.0542
     18 S         144.2444  142.5906  162.5229 S.2     1  UNL1       -0.0511
     19 C         143.9189  141.1833  158.9204 C.3     1  UNL1        0.1123
     20 N         144.0841  139.7322  158.5784 N.3     1  UNL1       -0.3162
     21 H         144.9769  139.3970  158.9402 H       1  UNL1        0.1192
     22 H         144.0631  139.6172  157.5651 H       1  UNL1        0.1192
     23 C         139.9025  138.6157  165.4116 C.3     1  UNL1        0.1539
     24 C         139.1586  138.8731  164.1347 C.ar    1  UNL1        0.0021
     25 C         139.1336  137.8293  163.0578 C.ar    1  UNL1       -0.0023
     26 C         138.3898  138.0867  161.7809 C.ar    1  UNL1       -0.0003
     27 C         137.6708  139.3879  161.5810 C.ar    1  UNL1       -0.0000
     28 C         137.6957  140.4317  162.6579 C.ar    1  UNL1       -0.0003
     29 C         138.4396  140.1743  163.9347 C.ar    1  UNL1       -0.0023
@<TRIPOS>BOND
     1     6     7    1
     2     7     8    1
     3     7     9    1
     4     7     1    1
     5     1     2   ar
     6     2     3   ar
     7     3    10    1
     8    10    11    2
     9    10    12   am
    10    12    14    1
    11    14    15   ar
    12    15    16   ar
    13    16    19    1
    14    19    20    1
    15    16    17   ar
    16    17    18   ar
    17     3     4   ar
    18     4    23    1
    19    23    24    1
    20    24    25   ar
    21    25    26   ar
    22    26    27   ar
    23    27    28   ar
    24    28    29   ar
    25     4     5   ar
    26     5     1   ar
    27    18    14   ar
    28    29    24   ar
    29    12    13    1
    30    20    21    1
    31    20    22    1
@<TRIPOS>MOLECULE
*****
 29 31 0 0 0
SMALL
GASTEIGER

@<TRIPOS>ATOM
      1 C         140.3813  141.4721  168.4403 C.ar    1  UNL1        0.0795
      2 C         140.4384  142.5324  167.3807 C.ar    1  UNL1        0.0398
      3 C         139.7689  141.9950  166.1506 C.ar    1  UNL1        0.1329
      4 N         139.2980  140.6026  166.4500 N.ar    1  UNL1       -0.2423
      5 N         139.6765  140.2795  167.8650 N.ar    1  UNL1       -0.1733
      6 C         141.2860  143.0197  169.5745 C.3     1  UNL1        0.0060
      7 C         140.9322  141.5848  169.8309 C.3     1  UNL1        0.0372
      8 C         140.5784  140.1497  170.0873 C.3     1  UNL1        0.0060
      9 C         141.4831  141.6974  171.2215 C.3     1  UNL1        0.0060
     10 C         139.6000  142.7223  164.8497 C.2     1  UNL1        0.2683
     11 O         138.2697  142.7204  164.1566 O.2     1  UNL1       -0.2681
     12 N         140.7614  143.4515  164.2417 N.am    1  UNL1       -0.2594
     13 H         141.6345  143.4527  164.6966 H       1  UNL1        0.1571
     14 C         140.5925  144.1788  162.9408 C.ar    1  UNL1        0.1655
     15 N         141.1006  143.7248  161.6045 N.ar    1  UNL1       -0.2269
     16 C         140.7080  144.7532  160.5855 C.ar    1  UNL1        0.0831
     17 C         139.9572  145.8427  161.2920 C.ar    1  UNL1        0.0542
     18 S         139.8858  145.4877  162.7477 S.2     1  UNL1       -0.0511
     19 C         141.0127  144.7011  159.1177 C.3     1  UNL1        0.1123
     20 N         142.1150  145.5453  158.5501 N.3     1  UNL1       -0.3162
     21 H         141.8682  146.5310  158.6383 H       1  UNL1        0.1192
     22 H         142.2472  145.3147  157.5653 H       1  UNL1        0.1192
     23 C         138.5756  139.6931  165.5009 C.3     1  UNL1        0.1539
     24 C         139.3448  138.9194  164.4714 C.ar    1  UNL1        0.0021
     25 C         138.9678  139.0177  163.0230 C.ar    1  UNL1       -0.0023
     26 C         139.7370  138.2439  161.9936 C.ar    1  UNL1       -0.0003
     27 C         140.8832  137.3719  162.4127 C.ar    1  UNL1       -0.0000
     28 C         141.2602  137.2736  163.8612 C.ar    1  UNL1       -0.0003
     29 C         140.4910  138.0473  164.8906 C.ar    1  UNL1       -0.0023
@<TRIPOS>BOND
     1     6     7    1
     2     7     8    1
     3     7     9    1
     4     7     1    1
     5     1     2   ar
     6     2     3   ar
     7     3    10    1
     8    10    11    2
     9    10    12   am
    10    12    14    1
    11    14    15   ar
    12    15    16   ar
    13    16    19    1
    14    19    20    1
    15    16    17   ar
    16    17    18   ar
    17     3     4   ar
    18     4    23    1
    19    23    24    1
    20    24    25   ar
    21    25    26   ar
    22    26    27   ar
    23    27    28   ar
    24    28    29   ar
    25     4     5   ar
    26     5     1   ar
    27    18    14   ar
    28    29    24   ar
    29    12    13    1
    30    20    21    1
    31    20    22    1
@<TRIPOS>MOLECULE
*****
 29 31 0 0 0
SMALL
GASTEIGER

@<TRIPOS>ATOM
      1 C         142.6985  140.8176  167.9605 C.ar    1  UNL1        0.0795
      2 C         142.4670  142.1096  167.2344 C.ar    1  UNL1        0.0398
      3 C         142.3785  141.8077  165.7678 C.ar    1  UNL1        0.1329
      4 N         142.5553  140.3291  165.5874 N.ar    1  UNL1       -0.2423
      5 N         142.7531  139.7172  166.9426 N.ar    1  UNL1       -0.1733
      6 C         142.2526  139.2813  169.3537 C.3     1  UNL1        0.0060
      7 C         142.8491  140.6547  169.4440 C.3     1  UNL1        0.0372
      8 C         143.4455  142.0281  169.5344 C.3     1  UNL1        0.0060
      9 C         142.9996  140.4917  170.9275 C.3     1  UNL1        0.0060
     10 C         142.1528  142.8087  164.6737 C.2     1  UNL1        0.2683
     11 O         143.2602  143.7333  164.2630 O.2     1  UNL1       -0.2681
     12 N         140.8198  142.8850  163.9901 N.am    1  UNL1       -0.2594
     13 H         140.0929  142.2781  164.2597 H       1  UNL1        0.1571
     14 C         140.5941  143.8860  162.8960 C.ar    1  UNL1        0.1655
     15 N         141.0977  143.7805  161.4870 N.ar    1  UNL1       -0.2269
     16 C         140.6401  144.9975  160.7390 C.ar    1  UNL1        0.0831
     17 C         139.8536  145.8550  161.6855 C.ar    1  UNL1        0.0542
     18 S         139.8252  145.1680  163.0187 S.2     1  UNL1       -0.0511
     19 C         140.9198  145.3032  159.2974 C.3     1  UNL1        0.1123
     20 N         142.2859  145.0559  158.7295 N.3     1  UNL1       -0.3162
     21 H         142.9565  145.6853  159.1706 H       1  UNL1        0.1192
     22 H         142.2718  145.2249  157.7237 H       1  UNL1        0.1192
     23 C         142.5374  139.5919  164.2813 C.3     1  UNL1        0.1539
     24 C         141.2605  138.9850  163.7800 C.ar    1  UNL1        0.0021
     25 C         140.3158  138.3255  164.7405 C.ar    1  UNL1       -0.0023
     26 C         139.0390  137.7186  164.2392 C.ar    1  UNL1       -0.0003
     27 C         138.7068  137.7713  162.7774 C.ar    1  UNL1       -0.0000
     28 C         139.6515  138.4308  161.8169 C.ar    1  UNL1       -0.0003
     29 C         140.9283  139.0376  162.3182 C.ar    1  UNL1       -0.0023
@<TRIPOS>BOND
     1     6     7    1
     2     7     8    1
     3     7     9    1
     4     7     1    1
     5     1     2   ar
     6     2     3   ar
     7     3    10    1
     8    10    11    2
     9    10    12   am
    10    12    14    1
    11    14    15   ar
    12    15    16   ar
    13    16    19    1
    14    19    20    1
    15    16    17   ar
    16    17    18   ar
    17     3     4   ar
    18     4    23    1
    19    23    24    1
    20    24    25   ar
    21    25    26   ar
    22    26    27   ar
    23    27    28   ar
    24    28    29   ar
    25     4     5   ar
    26     5     1   ar
    27    18    14   ar
    28    29    24   ar
    29    12    13    1
    30    20    21    1
    31    20    22    1
