@<TRIPOS>MOLECULE
*****
 30 32 0 0 0
SMALL
GASTEIGER

@<TRIPOS>ATOM
      1 N         140.9331  141.4681  163.4558 N.am    1  UNL1       -0.2658
      2 C         141.2466  142.0586  164.7986 C.2     1  UNL1        0.3082
      3 O         141.3014  143.5479  164.9688 O.2     1  UNL1       -0.2521
      4 N         141.5053  141.1597  165.9712 N.am    1  UNL1       -0.2680
      5 H         140.8971  140.4906  163.3441 H       1  UNL1        0.1565
      6 H         141.4694  140.1822  165.8595 H       1  UNL1        0.1564
      7 C         141.8213  142.8786  161.4629 C.ar    1  UNL1        0.1040
      8 C         140.6743  142.3671  162.2832 C.ar    1  UNL1        0.0871
      9 C         139.2688  142.7545  161.9309 C.ar    1  UNL1        0.1165
     10 N         139.0100  143.6535  160.7582 N.ar    1  UNL1       -0.2236
     11 C         140.1570  144.1650  159.9380 C.ar    1  UNL1        0.1660
     12 C         140.2103  145.0592  158.7348 C.ar    1  UNL1        0.0713
     13 C         141.6489  145.2244  158.3436 C.ar    1  UNL1        0.1613
     14 CL        142.1618  146.0387  157.1930 Cl      1  UNL1       -0.0594
     15 N         142.4847  144.4323  159.3049 N.ar    1  UNL1       -0.1523
     16 N         141.5626  143.7775  160.2903 N.ar    1  UNL1       -0.2118
     17 C         143.2269  142.4912  161.8152 C.3     1  UNL1        0.1564
     18 C         144.1973  143.5345  162.2840 C.3     1  UNL1        0.0387
     19 C         144.4740  140.4320  162.7923 C.3     1  UNL1        0.1745
     20 O         143.6621  141.0603  161.6988 O.3     1  UNL1       -0.3476
     21 C         141.8189  141.7501  167.3141 C.ar    1  UNL1        0.0546
     22 C         143.2447  141.8841  167.7600 C.ar    1  UNL1        0.0354
     23 C         143.5582  142.4745  169.1028 C.ar    1  UNL1        0.1000
     24 N         142.4459  142.9310  169.9996 N.ar    1  UNL1       -0.2398
     25 C         141.0200  142.7970  169.5537 C.ar    1  UNL1        0.1539
     26 C         140.7064  142.2065  168.2108 C.ar    1  UNL1        0.0378
     27 C         139.9076  143.2534  170.4505 C.3     1  UNL1        0.4349
     28 F         138.7953  143.7099  171.3473 F       1  UNL1       -0.1644
     29 F         139.4717  141.8300  170.6343 F       1  UNL1       -0.1644
     30 F         140.3435  144.6769  170.2666 F       1  UNL1       -0.1644
@<TRIPOS>BOND
     1    19    20    1
     2    20    17    1
     3    17    18    1
     4    17     7    1
     5     7     8   ar
     6     8     1    1
     7     1     2   am
     8     2     3    2
     9     2     4   am
    10     4    21    1
    11    21    22   ar
    12    22    23   ar
    13    23    24   ar
    14    24    25   ar
    15    25    27    1
    16    27    28    1
    17    27    29    1
    18    27    30    1
    19    25    26   ar
    20     8     9   ar
    21     9    10   ar
    22    10    11   ar
    23    11    12   ar
    24    12    13   ar
    25    13    14    1
    26    13    15   ar
    27    15    16   ar
    28    16     7   ar
    29    26    21   ar
    30    16    11   ar
    31     1     5    1
    32     4     6    1
@<TRIPOS>MOLECULE
*****
 30 32 0 0 0
SMALL
GASTEIGER

@<TRIPOS>ATOM
      1 N         141.0712  141.8049  163.0605 N.am    1  UNL1       -0.2658
      2 C         141.4822  142.2838  164.4213 C.2     1  UNL1        0.3082
      3 O         142.1811  143.6024  164.5730 O.2     1  UNL1       -0.2521
      4 N         141.1945  141.4440  165.6304 N.am    1  UNL1       -0.2680
      5 H         140.6125  140.9395  162.9610 H       1  UNL1        0.1565
      6 H         140.7359  140.5786  165.5309 H       1  UNL1        0.1564
      7 C         140.2439  143.3735  161.1618 C.ar    1  UNL1        0.1040
      8 C         141.3590  142.6447  161.8514 C.ar    1  UNL1        0.0871
      9 C         142.7617  142.7558  161.3319 C.ar    1  UNL1        0.1165
     10 N         143.0494  143.5956  160.1228 N.ar    1  UNL1       -0.2236
     11 C         141.9344  144.3244  159.4332 C.ar    1  UNL1        0.1660
     12 C         141.9136  145.2200  158.2301 C.ar    1  UNL1        0.0713
     13 C         140.4979  145.6624  158.0060 C.ar    1  UNL1        0.1613
     14 CL        140.0202  146.5680  156.9098 Cl      1  UNL1       -0.0594
     15 N         139.6438  145.0402  159.0707 N.ar    1  UNL1       -0.1523
     16 N         140.5316  144.2133  159.9527 N.ar    1  UNL1       -0.2118
     17 C         138.8411  143.2624  161.6813 C.3     1  UNL1        0.1564
     18 C         138.0468  142.0140  161.4351 C.3     1  UNL1        0.0387
     19 C         138.7180  144.7174  163.8302 C.3     1  UNL1        0.1745
     20 O         138.2326  144.3997  162.4470 O.3     1  UNL1       -0.3476
     21 C         141.6056  141.9229  166.9913 C.ar    1  UNL1        0.0546
     22 C         143.0567  141.9509  167.3698 C.ar    1  UNL1        0.0354
     23 C         143.4677  142.4297  168.7306 C.ar    1  UNL1        0.1000
     24 N         142.4276  142.8806  169.7128 N.ar    1  UNL1       -0.2398
     25 C         140.9764  142.8526  169.3343 C.ar    1  UNL1        0.1539
     26 C         140.5653  142.3737  167.9735 C.ar    1  UNL1        0.0378
     27 C         139.9363  143.3034  170.3166 C.3     1  UNL1        0.4349
     28 F         138.8962  143.7542  171.2989 F       1  UNL1       -0.1644
     29 F         140.4724  144.7023  170.2422 F       1  UNL1       -0.1644
     30 F         139.4002  141.9044  170.3910 F       1  UNL1       -0.1644
@<TRIPOS>BOND
     1    19    20    1
     2    20    17    1
     3    17    18    1
     4    17     7    1
     5     7     8   ar
     6     8     1    1
     7     1     2   am
     8     2     3    2
     9     2     4   am
    10     4    21    1
    11    21    22   ar
    12    22    23   ar
    13    23    24   ar
    14    24    25   ar
    15    25    27    1
    16    27    28    1
    17    27    29    1
    18    27    30    1
    19    25    26   ar
    20     8     9   ar
    21     9    10   ar
    22    10    11   ar
    23    11    12   ar
    24    12    13   ar
    25    13    14    1
    26    13    15   ar
    27    15    16   ar
    28    16     7   ar
    29    26    21   ar
    30    16    11   ar
    31     1     5    1
    32     4     6    1
@<TRIPOS>MOLECULE
*****
 30 32 0 0 0
SMALL
GASTEIGER

@<TRIPOS>ATOM
      1 N         138.0362  140.9839  164.3149 N.am    1  UNL1       -0.2658
      2 C         139.3140  140.8470  165.0886 C.2     1  UNL1        0.3082
      3 O         140.6133  140.6574  164.3634 O.2     1  UNL1       -0.2521
      4 N         139.2924  140.8997  166.5875 N.am    1  UNL1       -0.2680
      5 H         137.1835  141.1083  164.7908 H       1  UNL1        0.1565
      6 H         138.4397  141.0241  167.0634 H       1  UNL1        0.1564
      7 C         138.3995  142.1605  162.0271 C.ar    1  UNL1        0.1040
      8 C         138.0579  140.9312  162.8159 C.ar    1  UNL1        0.0871
      9 C         137.7378  139.6494  162.1058 C.ar    1  UNL1        0.1165
     10 N         137.7594  139.5967  160.6068 N.ar    1  UNL1       -0.2236
     11 C         138.1011  140.8259  159.8181 C.ar    1  UNL1        0.1660
     12 C         138.2017  141.0758  158.3425 C.ar    1  UNL1        0.0713
     13 C         138.5839  142.5122  158.1407 C.ar    1  UNL1        0.1613
     14 CL        138.7937  143.1916  156.8199 Cl      1  UNL1       -0.0594
     15 N         138.7196  143.1500  159.4915 N.ar    1  UNL1       -0.1523
     16 N         138.4212  142.1078  160.5282 N.ar    1  UNL1       -0.2118
     17 C         138.7196  143.4423  162.7373 C.3     1  UNL1        0.1564
     18 C         137.6107  144.3373  163.2058 C.3     1  UNL1        0.0387
     19 C         140.5638  144.3687  164.3155 C.3     1  UNL1        0.1745
     20 O         140.1486  143.8293  162.9790 O.3     1  UNL1       -0.3476
     21 C         140.5703  140.7628  167.3612 C.ar    1  UNL1        0.0546
     22 C         141.4038  139.5239  167.2194 C.ar    1  UNL1        0.0354
     23 C         142.6816  139.3870  167.9931 C.ar    1  UNL1        0.1000
     24 N         143.1257  140.4890  168.9086 N.ar    1  UNL1       -0.2398
     25 C         142.2921  141.7280  169.0505 C.ar    1  UNL1        0.1539
     26 C         141.0143  141.8649  168.2767 C.ar    1  UNL1        0.0378
     27 C         142.7363  142.8301  169.9660 C.3     1  UNL1        0.4349
     28 F         143.1804  143.9321  170.8815 F       1  UNL1       -0.1644
     29 F         141.3421  143.3834  169.9763 F       1  UNL1       -0.1644
     30 F         144.1305  142.2767  169.9556 F       1  UNL1       -0.1644
@<TRIPOS>BOND
     1    19    20    1
     2    20    17    1
     3    17    18    1
     4    17     7    1
     5     7     8   ar
     6     8     1    1
     7     1     2   am
     8     2     3    2
     9     2     4   am
    10     4    21    1
    11    21    22   ar
    12    22    23   ar
    13    23    24   ar
    14    24    25   ar
    15    25    27    1
    16    27    28    1
    17    27    29    1
    18    27    30    1
    19    25    26   ar
    20     8     9   ar
    21     9    10   ar
    22    10    11   ar
    23    11    12   ar
    24    12    13   ar
    25    13    14    1
    26    13    15   ar
    27    15    16   ar
    28    16     7   ar
    29    26    21   ar
    30    16    11   ar
    31     1     5    1
    32     4     6    1
@<TRIPOS>MOLECULE
*****
 30 32 0 0 0
SMALL
GASTEIGER

@<TRIPOS>ATOM
      1 N         141.6147  144.3505  164.1754 N.am    1  UNL1       -0.2658
      2 C         140.8686  143.2650  164.8930 C.2     1  UNL1        0.3082
      3 O         139.7405  142.5514  164.2086 O.2     1  UNL1       -0.2521
      4 N         141.2506  142.8930  166.2950 N.am    1  UNL1       -0.2680
      5 H         142.3551  144.8188  164.6246 H       1  UNL1        0.1565
      6 H         141.9909  143.3613  166.7442 H       1  UNL1        0.1564
      7 C         142.0634  144.2469  161.6185 C.ar    1  UNL1        0.1040
      8 C         141.2327  144.7225  162.7733 C.ar    1  UNL1        0.0871
      9 C         140.0201  145.5700  162.5261 C.ar    1  UNL1        0.1165
     10 N         139.6381  145.9420  161.1240 N.ar    1  UNL1       -0.2236
     11 C         140.4688  145.4664  159.9692 C.ar    1  UNL1        0.1660
     12 C         140.3404  145.6714  158.4888 C.ar    1  UNL1        0.0713
     13 C         141.4738  144.9505  157.8211 C.ar    1  UNL1        0.1613
     14 CL        141.7328  144.8907  156.3449 Cl      1  UNL1       -0.0594
     15 N         142.3026  144.3000  158.8888 N.ar    1  UNL1       -0.1523
     16 N         141.6814  144.6188  160.2164 N.ar    1  UNL1       -0.2118
     17 C         143.2760  143.3993  161.8657 C.3     1  UNL1        0.1564
     18 C         143.3870  142.0453  161.2298 C.3     1  UNL1        0.0387
     19 C         144.8269  143.0946  163.9277 C.3     1  UNL1        0.1745
     20 O         144.3778  143.9058  162.7487 O.3     1  UNL1       -0.3476
     21 C         140.5044  141.8074  167.0127 C.ar    1  UNL1        0.0546
     22 C         140.2947  141.8953  168.4953 C.ar    1  UNL1        0.0354
     23 C         139.5486  140.8098  169.2129 C.ar    1  UNL1        0.1000
     24 N         139.0122  139.6364  168.4479 N.ar    1  UNL1       -0.2398
     25 C         139.2219  139.5484  166.9652 C.ar    1  UNL1        0.1539
     26 C         139.9681  140.6340  166.2475 C.ar    1  UNL1        0.0378
     27 C         138.6855  138.3750  166.2002 C.3     1  UNL1        0.4349
     28 F         138.1491  137.2015  165.4351 F       1  UNL1       -0.1644
     29 F         139.9997  138.2370  165.4904 F       1  UNL1       -0.1644
     30 F         137.3713  138.5130  166.9100 F       1  UNL1       -0.1644
@<TRIPOS>BOND
     1    19    20    1
     2    20    17    1
     3    17    18    1
     4    17     7    1
     5     7     8   ar
     6     8     1    1
     7     1     2   am
     8     2     3    2
     9     2     4   am
    10     4    21    1
    11    21    22   ar
    12    22    23   ar
    13    23    24   ar
    14    24    25   ar
    15    25    27    1
    16    27    28    1
    17    27    29    1
    18    27    30    1
    19    25    26   ar
    20     8     9   ar
    21     9    10   ar
    22    10    11   ar
    23    11    12   ar
    24    12    13   ar
    25    13    14    1
    26    13    15   ar
    27    15    16   ar
    28    16     7   ar
    29    26    21   ar
    30    16    11   ar
    31     1     5    1
    32     4     6    1
@<TRIPOS>MOLECULE
*****
 30 32 0 0 0
SMALL
GASTEIGER

@<TRIPOS>ATOM
      1 N         141.4749  144.1350  162.4401 N.am    1  UNL1       -0.2658
      2 C         141.3932  144.0890  160.9431 C.2     1  UNL1        0.3082
      3 O         141.0605  142.8013  160.2492 O.2     1  UNL1       -0.2521
      4 N         141.6442  145.3306  160.1398 N.am    1  UNL1       -0.2680
      5 H         141.6932  144.9802  162.8955 H       1  UNL1        0.1565
      6 H         141.8625  146.1758  160.5951 H       1  UNL1        0.1564
      7 C         139.8665  142.6410  163.8297 C.ar    1  UNL1        0.1040
      8 C         141.2239  142.8933  163.2434 C.ar    1  UNL1        0.0871
      9 C         142.3303  141.9040  163.4604 C.ar    1  UNL1        0.1165
     10 N         142.0793  140.6623  164.2637 N.ar    1  UNL1       -0.2236
     11 C         140.7219  140.4100  164.8500 C.ar    1  UNL1        0.1660
     12 C         140.1806  139.2839  165.6800 C.ar    1  UNL1        0.0713
     13 C         138.7397  139.5774  165.9761 C.ar    1  UNL1        0.1613
     14 CL        137.8111  138.7148  166.7784 Cl      1  UNL1       -0.0594
     15 N         138.3904  140.8848  165.3290 N.ar    1  UNL1       -0.1523
     16 N         139.6155  141.3994  164.6330 N.ar    1  UNL1       -0.2118
     17 C         138.7601  143.6304  163.6128 C.3     1  UNL1        0.1564
     18 C         138.2796  144.4800  164.7518 C.3     1  UNL1        0.0387
     19 C         137.9296  142.5585  161.3966 C.3     1  UNL1        0.1745
     20 O         138.1342  143.7702  162.2567 O.3     1  UNL1       -0.3476
     21 C         141.5625  145.2846  158.6426 C.ar    1  UNL1        0.0546
     22 C         142.5218  144.4333  157.8650 C.ar    1  UNL1        0.0354
     23 C         142.4401  144.3873  156.3679 C.ar    1  UNL1        0.1000
     24 N         141.3990  145.1926  155.6485 N.ar    1  UNL1       -0.2398
     25 C         140.4396  146.0440  156.4262 C.ar    1  UNL1        0.1539
     26 C         140.5213  146.0900  157.9233 C.ar    1  UNL1        0.0378
     27 C         139.3985  146.8493  155.7068 C.3     1  UNL1        0.4349
     28 F         138.3574  147.6547  154.9874 F       1  UNL1       -0.1644
     29 F         139.7598  146.1674  154.4205 F       1  UNL1       -0.1644
     30 F         139.0373  147.5313  156.9931 F       1  UNL1       -0.1644
@<TRIPOS>BOND
     1    19    20    1
     2    20    17    1
     3    17    18    1
     4    17     7    1
     5     7     8   ar
     6     8     1    1
     7     1     2   am
     8     2     3    2
     9     2     4   am
    10     4    21    1
    11    21    22   ar
    12    22    23   ar
    13    23    24   ar
    14    24    25   ar
    15    25    27    1
    16    27    28    1
    17    27    29    1
    18    27    30    1
    19    25    26   ar
    20     8     9   ar
    21     9    10   ar
    22    10    11   ar
    23    11    12   ar
    24    12    13   ar
    25    13    14    1
    26    13    15   ar
    27    15    16   ar
    28    16     7   ar
    29    26    21   ar
    30    16    11   ar
    31     1     5    1
    32     4     6    1
@<TRIPOS>MOLECULE
*****
 30 32 0 0 0
SMALL
GASTEIGER

@<TRIPOS>ATOM
      1 N         142.3175  143.0307  162.1293 N.am    1  UNL1       -0.2658
      2 C         141.6947  141.7028  162.4435 C.2     1  UNL1        0.3082
      3 O         141.0002  140.9259  161.3645 O.2     1  UNL1       -0.2521
      4 N         141.7663  141.1517  163.8367 N.am    1  UNL1       -0.2680
      5 H         142.7733  143.5405  162.8375 H       1  UNL1        0.1565
      6 H         142.2221  141.6615  164.5449 H       1  UNL1        0.1564
      7 C         141.1040  144.4695  160.3384 C.ar    1  UNL1        0.1040
      8 C         142.2459  143.5818  160.7359 C.ar    1  UNL1        0.0871
      9 C         143.3160  143.2451  159.7403 C.ar    1  UNL1        0.1165
     10 N         143.2443  143.7962  158.3470 N.ar    1  UNL1       -0.2236
     11 C         142.1024  144.6839  157.9495 C.ar    1  UNL1        0.1660
     12 C         141.7667  145.3699  156.6584 C.ar    1  UNL1        0.0713
     13 C         140.4891  146.1305  156.8563 C.ar    1  UNL1        0.1613
     14 CL        139.7884  146.9612  155.8224 Cl      1  UNL1       -0.0594
     15 N         140.0352  145.9146  158.2695 N.ar    1  UNL1       -0.1523
     16 N         141.0322  145.0206  158.9452 N.ar    1  UNL1       -0.2118
     17 C         140.0338  144.8061  161.3342 C.3     1  UNL1        0.1564
     18 C         140.2818  145.8572  162.3752 C.3     1  UNL1        0.0387
     19 C         138.3473  143.1276  162.3773 C.3     1  UNL1        0.1745
     20 O         138.7156  144.0916  161.2888 O.3     1  UNL1       -0.3476
     21 C         141.1435  139.8237  164.1510 C.ar    1  UNL1        0.0546
     22 C         141.7139  138.5690  163.5594 C.ar    1  UNL1        0.0354
     23 C         141.0911  137.2411  163.8736 C.ar    1  UNL1        0.1000
     24 N         139.8978  137.1680  164.7794 N.ar    1  UNL1       -0.2398
     25 C         139.3272  138.4228  165.3711 C.ar    1  UNL1        0.1539
     26 C         139.9501  139.7507  165.0568 C.ar    1  UNL1        0.0378
     27 C         138.1339  138.3496  166.2769 C.3     1  UNL1        0.4349
     28 F         136.9405  138.2765  167.1827 F       1  UNL1       -0.1644
     29 F         138.1677  139.8402  166.4417 F       1  UNL1       -0.1644
     30 F         138.1002  136.8591  166.1120 F       1  UNL1       -0.1644
@<TRIPOS>BOND
     1    19    20    1
     2    20    17    1
     3    17    18    1
     4    17     7    1
     5     7     8   ar
     6     8     1    1
     7     1     2   am
     8     2     3    2
     9     2     4   am
    10     4    21    1
    11    21    22   ar
    12    22    23   ar
    13    23    24   ar
    14    24    25   ar
    15    25    27    1
    16    27    28    1
    17    27    29    1
    18    27    30    1
    19    25    26   ar
    20     8     9   ar
    21     9    10   ar
    22    10    11   ar
    23    11    12   ar
    24    12    13   ar
    25    13    14    1
    26    13    15   ar
    27    15    16   ar
    28    16     7   ar
    29    26    21   ar
    30    16    11   ar
    31     1     5    1
    32     4     6    1
@<TRIPOS>MOLECULE
*****
 30 32 0 0 0
SMALL
GASTEIGER

@<TRIPOS>ATOM
      1 N         140.4785  144.1031  158.6479 N.am    1  UNL1       -0.2658
      2 C         140.6484  145.2170  157.6578 C.2     1  UNL1        0.3082
      3 O         141.8991  146.0452  157.6677 O.2     1  UNL1       -0.2521
      4 N         139.5676  145.5029  156.6577 N.am    1  UNL1       -0.2680
      5 H         139.6577  143.5596  158.6413 H       1  UNL1        0.1565
      6 H         138.7468  144.9594  156.6511 H       1  UNL1        0.1564
      7 C         141.3480  144.1480  161.0957 C.ar    1  UNL1        0.1040
      8 C         141.5594  143.8173  159.6480 C.ar    1  UNL1        0.0871
      9 C         142.8515  143.2010  159.2003 C.ar    1  UNL1        0.1165
     10 N         143.9324  142.9152  160.2004 N.ar    1  UNL1       -0.2236
     11 C         143.7210  143.2458  161.6482 C.ar    1  UNL1        0.1660
     12 C         144.5977  143.0800  162.8539 C.ar    1  UNL1        0.0713
     13 C         143.8474  143.5939  164.0468 C.ar    1  UNL1        0.1613
     14 CL        144.3493  143.6198  165.4600 Cl      1  UNL1       -0.0594
     15 N         142.5069  144.0774  163.5782 N.ar    1  UNL1       -0.1523
     16 N         142.4288  143.8622  162.0958 N.ar    1  UNL1       -0.2118
     17 C         140.0559  144.7644  161.5433 C.3     1  UNL1        0.1564
     18 C         140.0369  146.1702  162.0661 C.3     1  UNL1        0.0387
     19 C         137.9939  143.7032  162.7147 C.3     1  UNL1        0.1745
     20 O         138.7825  143.9749  161.4681 O.3     1  UNL1       -0.3476
     21 C         139.7375  146.6169  155.6675 C.ar    1  UNL1        0.0546
     22 C         140.5333  146.3930  154.4160 C.ar    1  UNL1        0.0354
     23 C         140.7032  147.5069  153.4259 C.ar    1  UNL1        0.1000
     24 N         140.0772  148.8447  153.6874 N.ar    1  UNL1       -0.2398
     25 C         139.2813  149.0686  154.9389 C.ar    1  UNL1        0.1539
     26 C         139.1114  147.9546  155.9291 C.ar    1  UNL1        0.0378
     27 C         138.6552  150.4064  155.2004 C.3     1  UNL1        0.4349
     28 F         138.0292  151.7442  155.4618 F       1  UNL1       -0.1644
     29 F         138.1787  149.9220  156.5377 F       1  UNL1       -0.1644
     30 F         139.1318  150.8907  153.8630 F       1  UNL1       -0.1644
@<TRIPOS>BOND
     1    19    20    1
     2    20    17    1
     3    17    18    1
     4    17     7    1
     5     7     8   ar
     6     8     1    1
     7     1     2   am
     8     2     3    2
     9     2     4   am
    10     4    21    1
    11    21    22   ar
    12    22    23   ar
    13    23    24   ar
    14    24    25   ar
    15    25    27    1
    16    27    28    1
    17    27    29    1
    18    27    30    1
    19    25    26   ar
    20     8     9   ar
    21     9    10   ar
    22    10    11   ar
    23    11    12   ar
    24    12    13   ar
    25    13    14    1
    26    13    15   ar
    27    15    16   ar
    28    16     7   ar
    29    26    21   ar
    30    16    11   ar
    31     1     5    1
    32     4     6    1
@<TRIPOS>MOLECULE
*****
 30 32 0 0 0
SMALL
GASTEIGER

@<TRIPOS>ATOM
      1 N         142.5192  141.4687  163.6540 N.am    1  UNL1       -0.2658
      2 C         142.0610  141.7865  165.0465 C.2     1  UNL1        0.3082
      3 O         140.8406  142.6321  165.2600 O.2     1  UNL1       -0.2521
      4 N         142.8233  141.2587  166.2257 N.am    1  UNL1       -0.2680
      5 H         143.3202  140.9136  163.5140 H       1  UNL1        0.1565
      6 H         143.6243  140.7037  166.0857 H       1  UNL1        0.1564
      7 C         142.1561  143.2982  161.8455 C.ar    1  UNL1        0.1040
      8 C         141.7569  141.9965  162.4749 C.ar    1  UNL1        0.0871
      9 C         140.5956  141.2226  161.9252 C.ar    1  UNL1        0.1165
     10 N         139.8332  141.7505  160.7460 N.ar    1  UNL1       -0.2236
     11 C         140.2324  143.0522  160.1167 C.ar    1  UNL1        0.1660
     12 C         139.6741  143.8177  158.9537 C.ar    1  UNL1        0.0713
     13 C         140.4905  145.0646  158.7848 C.ar    1  UNL1        0.1613
     14 CL        140.2808  146.1210  157.7407 Cl      1  UNL1       -0.0594
     15 N         141.5533  145.0699  159.8433 N.ar    1  UNL1       -0.1523
     16 N         141.3938  143.8261  160.6664 N.ar    1  UNL1       -0.2118
     17 C         143.3175  144.0721  162.3953 C.3     1  UNL1        0.1564
     18 C         143.0933  145.1085  163.4563 C.3     1  UNL1        0.0387
     19 C         144.9450  142.6925  160.9128 C.3     1  UNL1        0.1745
     20 O         144.7031  143.8096  161.8840 O.3     1  UNL1       -0.3476
     21 C         142.3651  141.5766  167.6183 C.ar    1  UNL1        0.0546
     22 C         143.2584  142.3478  168.5440 C.ar    1  UNL1        0.0354
     23 C         142.8002  142.6657  169.9365 C.ar    1  UNL1        0.1000
     24 N         141.4487  142.2122  170.4032 N.ar    1  UNL1       -0.2398
     25 C         140.5554  141.4409  169.4774 C.ar    1  UNL1        0.1539
     26 C         141.0136  141.1231  168.0849 C.ar    1  UNL1        0.0378
     27 C         139.2039  140.9875  169.9442 C.3     1  UNL1        0.4349
     28 F         137.8524  140.5340  170.4109 F       1  UNL1       -0.1644
     29 F         139.0249  142.2809  170.6824 F       1  UNL1       -0.1644
     30 F         139.3830  139.6940  169.2058 F       1  UNL1       -0.1644
@<TRIPOS>BOND
     1    19    20    1
     2    20    17    1
     3    17    18    1
     4    17     7    1
     5     7     8   ar
     6     8     1    1
     7     1     2   am
     8     2     3    2
     9     2     4   am
    10     4    21    1
    11    21    22   ar
    12    22    23   ar
    13    23    24   ar
    14    24    25   ar
    15    25    27    1
    16    27    28    1
    17    27    29    1
    18    27    30    1
    19    25    26   ar
    20     8     9   ar
    21     9    10   ar
    22    10    11   ar
    23    11    12   ar
    24    12    13   ar
    25    13    14    1
    26    13    15   ar
    27    15    16   ar
    28    16     7   ar
    29    26    21   ar
    30    16    11   ar
    31     1     5    1
    32     4     6    1
@<TRIPOS>MOLECULE
*****
 30 32 0 0 0
SMALL
GASTEIGER

@<TRIPOS>ATOM
      1 N         140.4982  140.6274  162.8102 N.am    1  UNL1       -0.2658
      2 C         140.5483  140.9716  164.2693 C.2     1  UNL1        0.3082
      3 O         140.4384  142.4022  164.7068 O.2     1  UNL1       -0.2521
      4 N         140.7083  139.8851  165.2911 N.am    1  UNL1       -0.2680
      5 H         140.5704  139.6885  162.5231 H       1  UNL1        0.1565
      6 H         140.7804  138.9462  165.0040 H       1  UNL1        0.1564
      7 C         141.5487  142.3202  161.1426 C.ar    1  UNL1        0.1040
      8 C         140.3382  141.7140  161.7885 C.ar    1  UNL1        0.0871
      9 C         138.9679  142.1943  161.4127 C.ar    1  UNL1        0.1165
     10 N         138.8079  143.2809  160.3910 N.ar    1  UNL1       -0.2236
     11 C         140.0184  143.8870  159.7451 C.ar    1  UNL1        0.1660
     12 C         140.1717  144.9649  158.7133 C.ar    1  UNL1        0.0713
     13 C         141.6369  145.1507  158.4513 C.ar    1  UNL1        0.1613
     14 CL        142.2435  146.1280  157.4885 Cl      1  UNL1       -0.0594
     15 N         142.3891  144.1877  159.3213 N.ar    1  UNL1       -0.1523
     16 N         141.3888  143.4067  160.1209 N.ar    1  UNL1       -0.2118
     17 C         142.9192  141.8398  161.5183 C.3     1  UNL1        0.1564
     18 C         143.5588  140.7215  160.7501 C.3     1  UNL1        0.0387
     19 C         144.1744  143.8769  162.5307 C.3     1  UNL1        0.1745
     20 O         143.6500  142.4778  162.6625 O.3     1  UNL1       -0.3476
     21 C         140.7584  140.2293  166.7503 C.ar    1  UNL1        0.0546
     22 C         139.5599  139.9879  167.6193 C.ar    1  UNL1        0.0354
     23 C         139.6100  140.3320  169.0785 C.ar    1  UNL1        0.1000
     24 N         140.8585  140.9175  169.6685 N.ar    1  UNL1       -0.2398
     25 C         142.0571  141.1590  168.7995 C.ar    1  UNL1        0.1539
     26 C         142.0070  140.8148  167.3402 C.ar    1  UNL1        0.0378
     27 C         143.3056  141.7445  169.3895 C.3     1  UNL1        0.4349
     28 F         144.5542  142.3301  169.9796 F       1  UNL1       -0.1644
     29 F         143.4169  142.6819  168.2238 F       1  UNL1       -0.1644
     30 F         143.1942  140.8071  170.5553 F       1  UNL1       -0.1644
@<TRIPOS>BOND
     1    19    20    1
     2    20    17    1
     3    17    18    1
     4    17     7    1
     5     7     8   ar
     6     8     1    1
     7     1     2   am
     8     2     3    2
     9     2     4   am
    10     4    21    1
    11    21    22   ar
    12    22    23   ar
    13    23    24   ar
    14    24    25   ar
    15    25    27    1
    16    27    28    1
    17    27    29    1
    18    27    30    1
    19    25    26   ar
    20     8     9   ar
    21     9    10   ar
    22    10    11   ar
    23    11    12   ar
    24    12    13   ar
    25    13    14    1
    26    13    15   ar
    27    15    16   ar
    28    16     7   ar
    29    26    21   ar
    30    16    11   ar
    31     1     5    1
    32     4     6    1
