@<TRIPOS>MOLECULE
*****
 27 29 0 0 0
SMALL
GASTEIGER

@<TRIPOS>ATOM
      1 C         139.1529  138.3137  162.5081 C.ar    1  UNL1        0.0730
      2 C         139.2578  138.7731  163.9322 C.ar    1  UNL1        0.0302
      3 C         140.5859  138.7578  164.6292 C.ar    1  UNL1        0.0520
      4 C         141.8091  138.2832  163.9021 C.ar    1  UNL1        0.0486
      5 C         141.7041  137.8238  162.4781 C.ar    1  UNL1        0.1301
      6 N         140.3760  137.8391  161.7811 N.ar    1  UNL1       -0.2342
      7 N         140.6909  139.2172  166.0533 N.pl3   1  UNL1       -0.3027
      8 C         139.4515  139.5708  166.8206 C.3     1  UNL1        0.1231
      9 C         139.5564  140.0301  168.2446 C.3     1  UNL1        0.1636
     10 O         140.9008  140.1359  168.9014 O.3     1  UNL1       -0.3501
     11 C         142.1403  139.7823  168.1342 C.3     1  UNL1        0.1636
     12 C         142.0353  139.3229  166.7100 C.3     1  UNL1        0.1231
     13 N         142.9273  137.3492  161.7510 N.pl3   1  UNL1       -0.3057
     14 H         143.0287  136.3955  161.5287 H       1  UNL1        0.1492
     15 C         143.9959  138.3276  161.3628 C.3     1  UNL1        0.1959
     16 C         143.9184  139.0390  160.0445 C.1     1  UNL1        0.0952
     17 N         143.8408  139.7503  158.7261 N.1     1  UNL1       -0.1941
     18 C         137.8247  138.3289  161.8111 C.3     1  UNL1        0.1123
     19 S         137.4652  139.4706  160.9070 S.3     1  UNL1       -0.0504
     20 C         137.9184  143.0309  162.3851 C.ar    1  UNL1        0.1386
     21 O         137.2265  141.7001  162.3621 O.2     1  UNL1       -0.4348
     22 C         137.8509  140.8717  161.2786 C.ar    1  UNL1        0.2584
     23 N         138.9286  141.6905  160.6319 N.ar    1  UNL1       -0.2074
     24 C         138.9704  143.0249  161.3157 C.ar    1  UNL1        0.0932
     25 C         139.9006  144.1548  160.9879 C.3     1  UNL1        0.0551
     26 C         138.4173  144.3510  164.5664 C.3     1  UNL1        0.0085
     27 C         137.6121  144.1679  163.3142 C.3     1  UNL1        0.0659
@<TRIPOS>BOND
     1    26    27    1
     2    27    20    1
     3    20    21   ar
     4    21    22   ar
     5    22    19    1
     6    19    18    1
     7    18     1    1
     8     1     2   ar
     9     2     3   ar
    10     3     7    1
    11     7     8    1
    12     8     9    1
    13     9    10    1
    14    10    11    1
    15    11    12    1
    16     3     4   ar
    17     4     5   ar
    18     5    13    1
    19    13    15    1
    20    15    16    1
    21    16    17    3
    22     5     6   ar
    23    22    23   ar
    24    23    24   ar
    25    24    25    1
    26    24    20   ar
    27     6     1   ar
    28    12     7    1
    29    13    14    1
@<TRIPOS>MOLECULE
*****
 27 29 0 0 0
SMALL
GASTEIGER

@<TRIPOS>ATOM
      1 C         140.1063  139.3067  165.5134 C.ar    1  UNL1        0.0730
      2 C         139.9563  139.9387  166.8654 C.ar    1  UNL1        0.0302
      3 C         141.1697  140.2163  167.7024 C.ar    1  UNL1        0.0520
      4 C         142.5332  139.8618  167.1873 C.ar    1  UNL1        0.0486
      5 C         142.6832  139.2298  165.8353 C.ar    1  UNL1        0.1301
      6 N         141.4698  138.9522  164.9984 N.ar    1  UNL1       -0.2342
      7 N         141.0197  140.8484  169.0544 N.pl3   1  UNL1       -0.3027
      8 C         140.0265  141.9537  169.2596 C.3     1  UNL1        0.1231
      9 C         139.8765  142.5857  170.6116 C.3     1  UNL1        0.1636
     10 O         140.7196  142.1126  171.7585 O.3     1  UNL1       -0.3501
     11 C         141.7127  141.0073  171.5533 C.3     1  UNL1        0.1636
     12 C         141.8628  140.3752  170.2013 C.3     1  UNL1        0.1231
     13 N         144.0467  138.8753  165.3203 N.pl3   1  UNL1       -0.3057
     14 H         144.6958  138.4300  165.9115 H       1  UNL1        0.1492
     15 C         144.4212  139.1993  163.9044 C.3     1  UNL1        0.1959
     16 C         145.1621  140.4665  163.5957 C.1     1  UNL1        0.0952
     17 N         145.9030  141.7336  163.2871 N.1     1  UNL1       -0.1941
     18 C         138.8929  139.0290  164.6764 C.3     1  UNL1        0.1123
     19 S         138.4470  140.0259  163.6481 S.3     1  UNL1       -0.0504
     20 C         139.7897  143.6640  163.4821 C.ar    1  UNL1        0.1386
     21 O         139.7545  142.2556  162.9669 O.2     1  UNL1       -0.4348
     22 C         138.7902  141.4769  163.8119 C.ar    1  UNL1        0.2584
     23 N         138.2295  142.4040  164.8493 N.ar    1  UNL1       -0.2074
     24 C         138.8472  143.7556  164.6455 C.ar    1  UNL1        0.0932
     25 C         138.5709  144.9833  165.4617 C.3     1  UNL1        0.0551
     26 C         141.8533  145.2325  163.6597 C.3     1  UNL1        0.0085
     27 C         140.6214  144.7839  162.9308 C.3     1  UNL1        0.0659
@<TRIPOS>BOND
     1    26    27    1
     2    27    20    1
     3    20    21   ar
     4    21    22   ar
     5    22    19    1
     6    19    18    1
     7    18     1    1
     8     1     2   ar
     9     2     3   ar
    10     3     7    1
    11     7     8    1
    12     8     9    1
    13     9    10    1
    14    10    11    1
    15    11    12    1
    16     3     4   ar
    17     4     5   ar
    18     5    13    1
    19    13    15    1
    20    15    16    1
    21    16    17    3
    22     5     6   ar
    23    22    23   ar
    24    23    24   ar
    25    24    25    1
    26    24    20   ar
    27     6     1   ar
    28    12     7    1
    29    13    14    1
@<TRIPOS>MOLECULE
*****
 27 29 0 0 0
SMALL
GASTEIGER

@<TRIPOS>ATOM
      1 C         143.0949  142.5666  165.0062 C.ar    1  UNL1        0.0730
      2 C         142.5133  142.2051  166.3407 C.ar    1  UNL1        0.0302
      3 C         141.0811  142.5287  166.6471 C.ar    1  UNL1        0.0520
      4 C         140.2305  143.2138  165.6189 C.ar    1  UNL1        0.0486
      5 C         140.8121  143.5753  164.2844 C.ar    1  UNL1        0.1301
      6 N         142.2443  143.2517  163.9781 N.ar    1  UNL1       -0.2342
      7 N         140.4993  142.1672  167.9817 N.pl3   1  UNL1       -0.3027
      8 C         140.5227  143.1619  169.1042 C.3     1  UNL1        0.1231
      9 C         139.9410  142.8004  170.4387 C.3     1  UNL1        0.1636
     10 O         139.3360  141.4443  170.6508 O.3     1  UNL1       -0.3501
     11 C         139.3126  140.4496  169.5282 C.3     1  UNL1        0.1636
     12 C         139.8943  140.8111  168.1936 C.3     1  UNL1        0.1231
     13 N         139.9615  144.2605  163.2563 N.pl3   1  UNL1       -0.3057
     14 H         140.3837  144.7890  162.5411 H       1  UNL1        0.1492
     15 C         138.4676  144.1403  163.3179 C.3     1  UNL1        0.1959
     16 C         137.8029  142.8492  162.9419 C.1     1  UNL1        0.0952
     17 N         137.1382  141.5582  162.5660 N.1     1  UNL1       -0.1941
     18 C         144.5272  142.2429  164.6998 C.3     1  UNL1        0.1123
     19 S         144.8831  140.9200  164.0890 S.3     1  UNL1       -0.0504
     20 C         142.0777  138.2436  163.9078 C.ar    1  UNL1        0.1386
     21 O         143.0687  139.0519  164.6919 O.2     1  UNL1       -0.4348
     22 C         143.8019  139.9429  163.7334 C.ar    1  UNL1        0.2584
     23 N         143.2640  139.6853  162.3570 N.ar    1  UNL1       -0.2074
     24 C         142.1985  138.6351  162.4648 C.ar    1  UNL1        0.0932
     25 C         141.3948  138.0748  161.3291 C.3     1  UNL1        0.0551
     26 C         139.7314  137.6183  164.8319 C.3     1  UNL1        0.0085
     27 C         141.1320  137.2231  164.4684 C.3     1  UNL1        0.0659
@<TRIPOS>BOND
     1    26    27    1
     2    27    20    1
     3    20    21   ar
     4    21    22   ar
     5    22    19    1
     6    19    18    1
     7    18     1    1
     8     1     2   ar
     9     2     3   ar
    10     3     7    1
    11     7     8    1
    12     8     9    1
    13     9    10    1
    14    10    11    1
    15    11    12    1
    16     3     4   ar
    17     4     5   ar
    18     5    13    1
    19    13    15    1
    20    15    16    1
    21    16    17    3
    22     5     6   ar
    23    22    23   ar
    24    23    24   ar
    25    24    25    1
    26    24    20   ar
    27     6     1   ar
    28    12     7    1
    29    13    14    1
@<TRIPOS>MOLECULE
*****
 27 29 0 0 0
SMALL
GASTEIGER

@<TRIPOS>ATOM
      1 C         143.9215  142.6729  164.9173 C.ar    1  UNL1        0.0730
      2 C         143.0735  142.2702  166.0872 C.ar    1  UNL1        0.0302
      3 C         142.7557  140.8229  166.3202 C.ar    1  UNL1        0.0520
      4 C         143.2858  139.7783  165.3832 C.ar    1  UNL1        0.0486
      5 C         144.1338  140.1811  164.2134 C.ar    1  UNL1        0.1301
      6 N         144.4516  141.6284  163.9804 N.ar    1  UNL1       -0.2342
      7 N         141.9076  140.4201  167.4901 N.pl3   1  UNL1       -0.3027
      8 C         140.4137  140.5253  167.4050 C.3     1  UNL1        0.1231
      9 C         139.5657  140.1225  168.5749 C.3     1  UNL1        0.1636
     10 O         140.2115  139.6145  169.8299 O.3     1  UNL1       -0.3501
     11 C         141.7054  139.5094  169.9149 C.3     1  UNL1        0.1636
     12 C         142.5535  139.9121  168.7450 C.3     1  UNL1        0.1231
     13 N         144.6640  139.1365  163.2765 N.pl3   1  UNL1       -0.3057
     14 H         145.5352  138.7134  163.4531 H       1  UNL1        0.1492
     15 C         143.8668  138.7366  162.0704 C.3     1  UNL1        0.1959
     16 C         142.5500  138.0386  162.2395 C.1     1  UNL1        0.0952
     17 N         141.2331  137.3405  162.4086 N.1     1  UNL1       -0.1941
     18 C         144.2393  144.1203  164.6843 C.3     1  UNL1        0.1123
     19 S         143.6488  144.8377  163.5068 S.3     1  UNL1       -0.0504
     20 C         139.8323  144.3875  162.9613 C.ar    1  UNL1        0.1386
     21 O         140.9888  144.9134  163.7590 O.2     1  UNL1       -0.4348
     22 C         142.2540  144.5186  163.0565 C.ar    1  UNL1        0.2584
     23 N         141.8795  143.7489  161.8247 N.ar    1  UNL1       -0.2074
     24 C         140.3829  143.6678  161.7658 C.ar    1  UNL1        0.0932
     25 C         139.5781  142.9867  160.6990 C.3     1  UNL1        0.0551
     26 C         137.8734  144.1407  164.6500 C.3     1  UNL1        0.0085
     27 C         138.3803  144.5524  163.2996 C.3     1  UNL1        0.0659
@<TRIPOS>BOND
     1    26    27    1
     2    27    20    1
     3    20    21   ar
     4    21    22   ar
     5    22    19    1
     6    19    18    1
     7    18     1    1
     8     1     2   ar
     9     2     3   ar
    10     3     7    1
    11     7     8    1
    12     8     9    1
    13     9    10    1
    14    10    11    1
    15    11    12    1
    16     3     4   ar
    17     4     5   ar
    18     5    13    1
    19    13    15    1
    20    15    16    1
    21    16    17    3
    22     5     6   ar
    23    22    23   ar
    24    23    24   ar
    25    24    25    1
    26    24    20   ar
    27     6     1   ar
    28    12     7    1
    29    13    14    1
@<TRIPOS>MOLECULE
*****
 27 29 0 0 0
SMALL
GASTEIGER

@<TRIPOS>ATOM
      1 C         139.3100  140.4584  165.0498 C.ar    1  UNL1        0.0730
      2 C         139.3336  141.3762  163.8636 C.ar    1  UNL1        0.0302
      3 C         139.7608  142.8045  164.0289 C.ar    1  UNL1        0.0520
      4 C         140.1645  143.3150  165.3804 C.ar    1  UNL1        0.0486
      5 C         140.1409  142.3973  166.5665 C.ar    1  UNL1        0.1301
      6 N         139.7137  140.9690  166.4013 N.ar    1  UNL1       -0.2342
      7 N         139.7844  143.7224  162.8427 N.pl3   1  UNL1       -0.3027
      8 C         139.8954  143.1560  161.4582 C.3     1  UNL1        0.1231
      9 C         139.9190  144.0737  160.2720 C.3     1  UNL1        0.1636
     10 O         139.8316  145.5581  160.4703 O.3     1  UNL1       -0.3501
     11 C         139.7206  146.1245  161.8548 C.3     1  UNL1        0.1636
     12 C         139.6970  145.2066  163.0410 C.3     1  UNL1        0.1231
     13 N         140.5446  142.9078  167.9180 N.pl3   1  UNL1       -0.3057
     14 H         140.3748  143.8467  168.1604 H       1  UNL1        0.1492
     15 C         141.2071  141.9877  168.9001 C.3     1  UNL1        0.1959
     16 C         140.8709  142.0802  170.3590 C.1     1  UNL1        0.0952
     17 N         140.5347  142.1726  171.8179 N.1     1  UNL1       -0.1941
     18 C         138.8827  139.0301  164.8846 C.3     1  UNL1        0.1123
     19 S         139.9103  137.9376  164.8626 S.3     1  UNL1       -0.0504
     20 C         143.5701  138.8878  163.9859 C.ar    1  UNL1        0.1386
     21 O         142.4261  138.8361  164.9548 O.2     1  UNL1       -0.4348
     22 C         141.2618  138.1911  164.2631 C.ar    1  UNL1        0.2584
     23 N         141.6862  137.8441  162.8669 N.ar    1  UNL1       -0.2074
     24 C         143.1128  138.2746  162.6955 C.ar    1  UNL1        0.0932
     25 C         143.9373  138.1194  161.4522 C.3     1  UNL1        0.0551
     26 C         145.2736  140.8410  163.8036 C.3     1  UNL1        0.0085
     27 C         144.9323  139.4532  164.2594 C.3     1  UNL1        0.0659
@<TRIPOS>BOND
     1    26    27    1
     2    27    20    1
     3    20    21   ar
     4    21    22   ar
     5    22    19    1
     6    19    18    1
     7    18     1    1
     8     1     2   ar
     9     2     3   ar
    10     3     7    1
    11     7     8    1
    12     8     9    1
    13     9    10    1
    14    10    11    1
    15    11    12    1
    16     3     4   ar
    17     4     5   ar
    18     5    13    1
    19    13    15    1
    20    15    16    1
    21    16    17    3
    22     5     6   ar
    23    22    23   ar
    24    23    24   ar
    25    24    25    1
    26    24    20   ar
    27     6     1   ar
    28    12     7    1
    29    13    14    1
@<TRIPOS>MOLECULE
*****
 27 29 0 0 0
SMALL
GASTEIGER

@<TRIPOS>ATOM
      1 C         140.2458  143.6204  164.5660 C.ar    1  UNL1        0.0730
      2 C         139.6960  142.5324  163.6919 C.ar    1  UNL1        0.0302
      3 C         139.4254  141.1736  164.2666 C.ar    1  UNL1        0.0520
      4 C         139.7046  140.9027  165.7152 C.ar    1  UNL1        0.0486
      5 C         140.2544  141.9907  166.5893 C.ar    1  UNL1        0.1301
      6 N         140.5250  143.3495  166.0146 N.ar    1  UNL1       -0.2342
      7 N         138.8756  140.0855  163.3925 N.pl3   1  UNL1       -0.3027
      8 C         138.0743  140.4355  162.1737 C.3     1  UNL1        0.1231
      9 C         137.5245  139.3476  161.2997 C.3     1  UNL1        0.1636
     10 O         137.7759  137.9095  161.6444 O.3     1  UNL1       -0.3501
     11 C         138.5772  137.5594  162.8632 C.3     1  UNL1        0.1636
     12 C         139.1270  138.6475  163.7373 C.3     1  UNL1        0.1231
     13 N         140.5335  141.7198  168.0380 N.pl3   1  UNL1       -0.3057
     14 H         140.7859  140.8140  168.3297 H       1  UNL1        0.1492
     15 C         140.4283  142.8290  169.0422 C.3     1  UNL1        0.1959
     16 C         140.4533  142.5174  170.5093 C.1     1  UNL1        0.0952
     17 N         140.4784  142.2057  171.9763 N.1     1  UNL1       -0.1941
     18 C         140.5164  144.9793  163.9913 C.3     1  UNL1        0.1123
     19 S         141.9272  145.4132  163.7240 S.3     1  UNL1       -0.0504
     20 C         144.6603  142.7225  163.1273 C.ar    1  UNL1        0.1386
     21 O         143.8179  143.5522  164.0505 O.2     1  UNL1       -0.4348
     22 C         142.9317  144.4242  163.2113 C.ar    1  UNL1        0.2584
     23 N         143.2263  144.1335  161.7696 N.ar    1  UNL1       -0.2074
     24 C         144.2946  143.0819  161.7176 C.ar    1  UNL1        0.0932
     25 C         144.8922  142.4929  160.4743 C.3     1  UNL1        0.0551
     26 C         145.2579  140.3481  163.9962 C.3     1  UNL1        0.0085
     27 C         145.6879  141.7112  163.5411 C.3     1  UNL1        0.0659
@<TRIPOS>BOND
     1    26    27    1
     2    27    20    1
     3    20    21   ar
     4    21    22   ar
     5    22    19    1
     6    19    18    1
     7    18     1    1
     8     1     2   ar
     9     2     3   ar
    10     3     7    1
    11     7     8    1
    12     8     9    1
    13     9    10    1
    14    10    11    1
    15    11    12    1
    16     3     4   ar
    17     4     5   ar
    18     5    13    1
    19    13    15    1
    20    15    16    1
    21    16    17    3
    22     5     6   ar
    23    22    23   ar
    24    23    24   ar
    25    24    25    1
    26    24    20   ar
    27     6     1   ar
    28    12     7    1
    29    13    14    1
@<TRIPOS>MOLECULE
*****
 27 29 0 0 0
SMALL
GASTEIGER

@<TRIPOS>ATOM
      1 C         139.3914  140.2433  165.4500 C.ar    1  UNL1        0.0730
      2 C         139.9131  140.4617  166.8393 C.ar    1  UNL1        0.0302
      3 C         140.4138  141.8152  167.2481 C.ar    1  UNL1        0.0520
      4 C         140.3929  142.9503  166.2677 C.ar    1  UNL1        0.0486
      5 C         139.8713  142.7319  164.8784 C.ar    1  UNL1        0.1301
      6 N         139.3706  141.3783  164.4696 N.ar    1  UNL1       -0.2342
      7 N         140.9355  142.0338  168.6375 N.pl3   1  UNL1       -0.3027
      8 C         140.0469  141.7847  169.8200 C.3     1  UNL1        0.1231
      9 C         140.5685  142.0032  171.2093 C.3     1  UNL1        0.1636
     10 O         141.9788  142.4708  171.4161 O.3     1  UNL1       -0.3501
     11 C         142.8673  142.7198  170.2335 C.3     1  UNL1        0.1636
     12 C         142.3457  142.5013  168.8442 C.3     1  UNL1        0.1231
     13 N         139.8504  143.8669  163.8980 N.pl3   1  UNL1       -0.3057
     14 H         139.0971  143.9624  163.2715 H       1  UNL1        0.1492
     15 C         140.9773  144.8565  163.8722 C.3     1  UNL1        0.1959
     16 C         142.1342  144.6517  162.9397 C.1     1  UNL1        0.0952
     17 N         143.2910  144.4469  162.0071 N.1     1  UNL1       -0.1941
     18 C         138.8907  138.8897  165.0410 C.3     1  UNL1        0.1123
     19 S         139.8625  137.7757  164.7873 S.3     1  UNL1       -0.0504
     20 C         143.5118  138.8150  163.9700 C.ar    1  UNL1        0.1386
     21 O         142.3660  138.7013  164.9314 O.2     1  UNL1       -0.4348
     22 C         141.2121  138.0757  164.2053 C.ar    1  UNL1        0.2584
     23 N         141.6447  137.8027  162.7953 N.ar    1  UNL1       -0.2074
     24 C         143.0660  138.2596  162.6498 C.ar    1  UNL1        0.0932
     25 C         143.8957  138.1758  161.4031 C.3     1  UNL1        0.0551
     26 C         145.2451  140.7382  163.7529 C.3     1  UNL1        0.0085
     27 C         144.8656  139.3842  164.2751 C.3     1  UNL1        0.0659
@<TRIPOS>BOND
     1    26    27    1
     2    27    20    1
     3    20    21   ar
     4    21    22   ar
     5    22    19    1
     6    19    18    1
     7    18     1    1
     8     1     2   ar
     9     2     3   ar
    10     3     7    1
    11     7     8    1
    12     8     9    1
    13     9    10    1
    14    10    11    1
    15    11    12    1
    16     3     4   ar
    17     4     5   ar
    18     5    13    1
    19    13    15    1
    20    15    16    1
    21    16    17    3
    22     5     6   ar
    23    22    23   ar
    24    23    24   ar
    25    24    25    1
    26    24    20   ar
    27     6     1   ar
    28    12     7    1
    29    13    14    1
@<TRIPOS>MOLECULE
*****
 27 29 0 0 0
SMALL
GASTEIGER

@<TRIPOS>ATOM
      1 C         139.9353  143.4912  164.4142 C.ar    1  UNL1        0.0730
      2 C         140.2690  143.2709  165.8599 C.ar    1  UNL1        0.0302
      3 C         139.9723  141.9497  166.5051 C.ar    1  UNL1        0.0520
      4 C         139.3419  140.8488  165.7047 C.ar    1  UNL1        0.0486
      5 C         139.0082  141.0692  164.2590 C.ar    1  UNL1        0.1301
      6 N         139.3049  142.3904  163.6138 N.ar    1  UNL1       -0.2342
      7 N         140.3060  141.7293  167.9509 N.pl3   1  UNL1       -0.3027
      8 C         140.5960  142.9015  168.8408 C.3     1  UNL1        0.1231
      9 C         140.9297  142.6811  170.2865 C.3     1  UNL1        0.1636
     10 O         140.9735  141.2886  170.8423 O.3     1  UNL1       -0.3501
     11 C         140.6835  140.1164  169.9524 C.3     1  UNL1        0.1636
     12 C         140.3498  140.3368  168.5067 C.3     1  UNL1        0.1231
     13 N         138.3777  139.9683  163.4586 N.pl3   1  UNL1       -0.3057
     14 H         137.7199  140.1834  162.7584 H       1  UNL1        0.1492
     15 C         138.7496  138.5398  163.7249 C.3     1  UNL1        0.1959
     16 C         139.9187  137.9242  163.0148 C.1     1  UNL1        0.0952
     17 N         141.0877  137.3085  162.3047 N.1     1  UNL1       -0.1941
     18 C         140.2320  144.8125  163.7689 C.3     1  UNL1        0.1123
     19 S         141.6479  145.2975  163.6696 S.3     1  UNL1       -0.0504
     20 C         144.5610  142.7747  163.2060 C.ar    1  UNL1        0.1386
     21 O         143.6372  143.5618  164.0877 O.2     1  UNL1       -0.4348
     22 C         142.7288  144.3665  163.2060 C.ar    1  UNL1        0.2584
     23 N         143.0911  144.0767  161.7795 N.ar    1  UNL1       -0.2074
     24 C         144.2234  143.0930  161.7795 C.ar    1  UNL1        0.0932
     25 C         144.8995  142.5269  160.5661 C.3     1  UNL1        0.0551
     26 C         145.2964  140.4065  163.9813 C.3     1  UNL1        0.0085
     27 C         145.6339  141.8344  163.6695 C.3     1  UNL1        0.0659
@<TRIPOS>BOND
     1    26    27    1
     2    27    20    1
     3    20    21   ar
     4    21    22   ar
     5    22    19    1
     6    19    18    1
     7    18     1    1
     8     1     2   ar
     9     2     3   ar
    10     3     7    1
    11     7     8    1
    12     8     9    1
    13     9    10    1
    14    10    11    1
    15    11    12    1
    16     3     4   ar
    17     4     5   ar
    18     5    13    1
    19    13    15    1
    20    15    16    1
    21    16    17    3
    22     5     6   ar
    23    22    23   ar
    24    23    24   ar
    25    24    25    1
    26    24    20   ar
    27     6     1   ar
    28    12     7    1
    29    13    14    1
@<TRIPOS>MOLECULE
*****
 27 29 0 0 0
SMALL
GASTEIGER

@<TRIPOS>ATOM
      1 C         140.0871  144.0365  164.4368 C.ar    1  UNL1        0.0730
      2 C         139.7220  143.5266  165.7994 C.ar    1  UNL1        0.0302
      3 C         140.7264  142.7589  166.6068 C.ar    1  UNL1        0.0520
      4 C         142.0958  142.5012  166.0516 C.ar    1  UNL1        0.0486
      5 C         142.4609  143.0111  164.6891 C.ar    1  UNL1        0.1301
      6 N         141.4566  143.7788  163.8817 N.ar    1  UNL1       -0.2342
      7 N         140.3613  142.2489  167.9694 N.pl3   1  UNL1       -0.3027
      8 C         139.9145  140.8276  168.1434 C.3     1  UNL1        0.1231
      9 C         139.5495  140.3176  169.5059 C.3     1  UNL1        0.1636
     10 O         139.6311  141.2289  170.6946 O.3     1  UNL1       -0.3501
     11 C         140.0778  142.6503  170.5206 C.3     1  UNL1        0.1636
     12 C         140.4429  143.1602  169.1580 C.3     1  UNL1        0.1231
     13 N         143.8304  142.7534  164.1339 N.pl3   1  UNL1       -0.3057
     14 H         144.3895  142.0383  164.5151 H       1  UNL1        0.1492
     15 C         144.3480  143.5852  162.9981 C.3     1  UNL1        0.1959
     16 C         144.4636  142.9914  161.6255 C.1     1  UNL1        0.0952
     17 N         144.5792  142.3976  160.2529 N.1     1  UNL1       -0.1941
     18 C         139.0828  144.8042  163.6293 C.3     1  UNL1        0.1123
     19 S         137.8252  144.1332  163.1622 S.3     1  UNL1       -0.0504
     20 C         137.8521  140.5796  161.6010 C.ar    1  UNL1        0.1386
     21 O         137.6688  141.4927  162.7770 O.2     1  UNL1       -0.4348
     22 C         137.9046  142.8994  162.3127 C.ar    1  UNL1        0.2584
     23 N         138.2335  142.8558  160.8499 N.ar    1  UNL1       -0.2074
     24 C         138.2011  141.4221  160.4100 C.ar    1  UNL1        0.0932
     25 C         138.4703  140.9193  159.0228 C.3     1  UNL1        0.0551
     26 C         138.9339  138.2175  161.6142 C.3     1  UNL1        0.0085
     27 C         137.7111  139.0863  161.6138 C.3     1  UNL1        0.0659
@<TRIPOS>BOND
     1    26    27    1
     2    27    20    1
     3    20    21   ar
     4    21    22   ar
     5    22    19    1
     6    19    18    1
     7    18     1    1
     8     1     2   ar
     9     2     3   ar
    10     3     7    1
    11     7     8    1
    12     8     9    1
    13     9    10    1
    14    10    11    1
    15    11    12    1
    16     3     4   ar
    17     4     5   ar
    18     5    13    1
    19    13    15    1
    20    15    16    1
    21    16    17    3
    22     5     6   ar
    23    22    23   ar
    24    23    24   ar
    25    24    25    1
    26    24    20   ar
    27     6     1   ar
    28    12     7    1
    29    13    14    1
