@<TRIPOS>MOLECULE
*****
 40 43 0 0 0
SMALL
GASTEIGER

@<TRIPOS>ATOM
      1 C         140.1154  138.3761  158.0609 C.3     1  UNL1        0.1459
      2 O         139.5466  137.2728  157.2188 O.3     1  UNL1       -0.3813
      3 H         138.5928  137.2016  157.3805 H       1  UNL1        0.2105
      4 C         141.5805  138.6912  157.9946 C.3     1  UNL1        0.1034
      5 C         143.9687  139.0965  161.7869 C.3     1  UNL1        0.1687
      6 C         143.5981  137.7358  161.2758 C.3     1  UNL1        0.0609
      7 C         142.8019  137.6007  160.0116 C.3     1  UNL1        0.0759
      8 N         142.3765  138.8263  159.2586 N.3     1  UNL1       -0.2704
      9 C         142.7472  140.1869  159.7697 C.3     1  UNL1        0.0759
     10 C         143.5433  140.3220  161.0338 C.3     1  UNL1        0.0609
     11 O         144.7648  139.2316  163.0510 O.3     1  UNL1       -0.4782
     12 C         144.4945  143.7513  165.6003 C.3     1  UNL1        0.0329
     13 C         144.0972  142.3113  165.4633 C.ar    1  UNL1        0.0023
     14 C         143.1675  141.6914  166.4639 C.ar    1  UNL1        0.0547
     15 CL        142.6351  142.5113  167.6015 Cl      1  UNL1       -0.0825
     16 C         142.7703  140.2515  166.3269 C.ar    1  UNL1        0.0142
     17 C         143.3027  139.4315  165.1892 C.ar    1  UNL1        0.0386
     18 C         144.2324  140.0515  164.1886 C.ar    1  UNL1        0.1485
     19 C         144.6296  141.4914  164.3256 C.ar    1  UNL1        0.0884
     20 CL        145.5594  142.1115  163.3250 Cl      1  UNL1       -0.0794
     21 C         139.2191  139.1645  158.9694 C.3     1  UNL1        0.1204
     22 N         139.4660  139.1671  160.4489 N.am    1  UNL1       -0.2985
     23 C         138.4492  139.7615  161.3778 C.2     1  UNL1        0.2469
     24 O         137.1856  140.3533  160.8272 O.2     1  UNL1       -0.2701
     25 H         140.2953  138.7788  160.8103 H       1  UNL1        0.1498
     26 C         138.6961  139.7642  162.8574 C.2     1  UNL1        0.0665
     27 C         138.5723  138.4910  163.6407 C.2     1  UNL1        0.0931
     28 N         138.8191  138.4937  165.1202 N.am    1  UNL1       -0.1740
     29 C         139.1897  139.7695  165.8165 C.2     1  UNL1        0.2687
     30 O         139.4365  139.7722  167.2960 O.2     1  UNL1       -0.2680
     31 C         139.3135  141.0428  165.0332 C.2     1  UNL1        0.0520
     32 C         139.6841  142.3186  165.7294 C.2     1  UNL1        0.0053
     33 C         139.8079  143.5918  164.9461 C.2     1  UNL1        0.0144
     34 C         139.5611  143.5892  163.4666 C.2     1  UNL1        0.0878
     35 C         139.1905  142.3133  162.7703 C.3     1  UNL1        0.0716
     36 C         139.0667  141.0401  163.5536 C.2     1  UNL1       -0.0063
     37 S         139.6849  144.8625  162.6833 S.O2    1  UNL1        0.0070
     38 C         139.8086  146.1357  161.9000 C.3     1  UNL1        0.1812
     39 O         138.4728  144.4879  161.8829 O.2     1  UNL1       -0.1689
     40 O         140.8969  145.2370  163.4836 O.2     1  UNL1       -0.1689
@<TRIPOS>BOND
     1    12    13    1
     2    13    14   ar
     3    14    15    1
     4    14    16   ar
     5    16    17   ar
     6    17    18   ar
     7    18    11    1
     8    11     5    1
     9     5     6    1
    10     6     7    1
    11     7     8    1
    12     8     4    1
    13     4     1    1
    14     1     2    1
    15     1    21    1
    16    21    22    1
    17    22    23   am
    18    23    24    2
    19    23    26    1
    20    26    27    1
    21    27    28    2
    22    28    29    1
    23    29    30    2
    24    29    31    1
    25    31    32    2
    26    32    33    1
    27    33    34    2
    28    34    37    1
    29    37    38    1
    30    37    39    2
    31    37    40    2
    32    34    35    1
    33    35    36    1
    34     8     9    1
    35     9    10    1
    36    18    19   ar
    37    19    20    1
    38    19    13   ar
    39    10     5    1
    40    36    26    2
    41    36    31    1
    42     2     3    1
    43    22    25    1
@<TRIPOS>MOLECULE
*****
 40 43 0 0 0
SMALL
GASTEIGER

@<TRIPOS>ATOM
      1 C         144.6915  142.3388  157.8684 C.3     1  UNL1        0.1459
      2 O         146.0743  142.9120  157.9647 O.3     1  UNL1       -0.3813
      3 H         146.0181  143.8625  158.1499 H       1  UNL1        0.2105
      4 C         144.5032  140.8776  157.5866 C.3     1  UNL1        0.1034
      5 C         142.6175  138.2133  160.6843 C.3     1  UNL1        0.1687
      6 C         143.5711  139.2927  161.1035 C.3     1  UNL1        0.0609
      7 C         144.1997  140.1808  160.0709 C.3     1  UNL1        0.0759
      8 N         143.8747  139.9895  158.6191 N.3     1  UNL1       -0.2704
      9 C         142.9212  138.9102  158.1998 C.3     1  UNL1        0.0759
     10 C         142.2926  138.0221  159.2324 C.3     1  UNL1        0.0609
     11 O         141.9890  137.3252  161.7168 O.3     1  UNL1       -0.4782
     12 C         140.8943  139.4159  166.3462 C.3     1  UNL1        0.0329
     13 C         140.4436  138.9348  164.9987 C.ar    1  UNL1        0.0023
     14 C         138.9950  139.0179  164.6187 C.ar    1  UNL1        0.0547
     15 CL        137.9970  139.5821  165.5860 Cl      1  UNL1       -0.0825
     16 C         138.5443  138.5368  163.2713 C.ar    1  UNL1        0.0142
     17 C         139.5423  137.9725  162.3040 C.ar    1  UNL1        0.0386
     18 C         140.9910  137.8894  162.6841 C.ar    1  UNL1        0.1485
     19 C         141.4416  138.3706  164.0314 C.ar    1  UNL1        0.0884
     20 CL        142.8903  138.2875  164.4116 Cl      1  UNL1       -0.0794
     21 C         143.4968  143.2268  158.0540 C.3     1  UNL1        0.1204
     22 N         142.3454  142.7681  158.8989 N.am    1  UNL1       -0.2985
     23 C         141.5249  143.7698  159.6560 C.2     1  UNL1        0.2469
     24 O         141.8558  145.2303  159.5683 O.2     1  UNL1       -0.2701
     25 H         142.1282  141.8096  158.9564 H       1  UNL1        0.1498
     26 C         140.3734  143.3111  160.5009 C.2     1  UNL1        0.0665
     27 C         139.0426  143.0327  159.8675 C.2     1  UNL1        0.0931
     28 N         137.8911  142.5739  160.7123 N.am    1  UNL1       -0.1740
     29 C         138.0706  142.3936  162.1906 C.2     1  UNL1        0.2687
     30 O         136.9191  141.9349  163.0354 O.2     1  UNL1       -0.2680
     31 C         139.4015  142.6720  162.8240 C.2     1  UNL1        0.0520
     32 C         139.5809  142.4917  164.3023 C.2     1  UNL1        0.0053
     33 C         140.9118  142.7701  164.9357 C.2     1  UNL1        0.0144
     34 C         142.0632  143.2289  164.0908 C.2     1  UNL1        0.0878
     35 C         141.8838  143.4092  162.6126 C.3     1  UNL1        0.0716
     36 C         140.5529  143.1308  161.9792 C.2     1  UNL1       -0.0063
     37 S         143.3941  143.5073  164.7243 S.O2    1  UNL1        0.0070
     38 C         144.7250  143.7857  165.3577 C.3     1  UNL1        0.1812
     39 O         143.7133  144.4786  163.6268 O.2     1  UNL1       -0.1689
     40 O         143.0750  142.5359  165.8218 O.2     1  UNL1       -0.1689
@<TRIPOS>BOND
     1    12    13    1
     2    13    14   ar
     3    14    15    1
     4    14    16   ar
     5    16    17   ar
     6    17    18   ar
     7    18    11    1
     8    11     5    1
     9     5     6    1
    10     6     7    1
    11     7     8    1
    12     8     4    1
    13     4     1    1
    14     1     2    1
    15     1    21    1
    16    21    22    1
    17    22    23   am
    18    23    24    2
    19    23    26    1
    20    26    27    1
    21    27    28    2
    22    28    29    1
    23    29    30    2
    24    29    31    1
    25    31    32    2
    26    32    33    1
    27    33    34    2
    28    34    37    1
    29    37    38    1
    30    37    39    2
    31    37    40    2
    32    34    35    1
    33    35    36    1
    34     8     9    1
    35     9    10    1
    36    18    19   ar
    37    19    20    1
    38    19    13   ar
    39    10     5    1
    40    36    26    2
    41    36    31    1
    42     2     3    1
    43    22    25    1
@<TRIPOS>MOLECULE
*****
 40 43 0 0 0
SMALL
GASTEIGER

@<TRIPOS>ATOM
      1 C         138.6530  142.0319  158.0644 C.3     1  UNL1        0.1459
      2 O         137.3762  142.7371  157.7145 O.3     1  UNL1       -0.3813
      3 H         137.5300  143.6947  157.6974 H       1  UNL1        0.2105
      4 C         138.6821  140.5350  158.1564 C.3     1  UNL1        0.1034
      5 C         138.9428  138.5327  162.1780 C.3     1  UNL1        0.1687
      6 C         139.8597  138.1097  161.0687 C.3     1  UNL1        0.0609
      7 C         139.7728  138.7772  159.7281 C.3     1  UNL1        0.0759
      8 N         138.7690  139.8676  159.4969 N.3     1  UNL1       -0.2704
      9 C         137.8522  140.2906  160.6062 C.3     1  UNL1        0.0759
     10 C         137.9391  139.6231  161.9467 C.3     1  UNL1        0.0609
     11 O         139.0297  137.8653  163.5184 O.3     1  UNL1       -0.4782
     12 C         139.8303  140.3930  167.9872 C.3     1  UNL1        0.0329
     13 C         140.3695  139.6593  166.7951 C.ar    1  UNL1        0.0023
     14 C         141.8480  139.4557  166.6454 C.ar    1  UNL1        0.0547
     15 CL        142.7875  139.9859  167.6877 Cl      1  UNL1       -0.0825
     16 C         142.3871  138.7220  165.4533 C.ar    1  UNL1        0.0142
     17 C         141.4477  138.1919  164.4110 C.ar    1  UNL1        0.0386
     18 C         139.9692  138.3954  164.5608 C.ar    1  UNL1        0.1485
     19 C         139.4301  139.1291  165.7528 C.ar    1  UNL1        0.0884
     20 CL        137.9515  139.3327  165.9026 Cl      1  UNL1       -0.0794
     21 C         139.9008  142.8236  158.3222 C.3     1  UNL1        0.1204
     22 N         140.8752  142.3683  159.3677 N.am    1  UNL1       -0.2985
     23 C         141.9337  143.3070  159.8660 C.2     1  UNL1        0.2469
     24 O         142.0178  144.7012  159.3188 O.2     1  UNL1       -0.2701
     25 H         140.8201  141.4533  159.7269 H       1  UNL1        0.1498
     26 C         142.9081  142.8517  160.9116 C.2     1  UNL1        0.0665
     27 C         144.2639  142.3535  160.5071 C.2     1  UNL1        0.0931
     28 N         145.2383  141.8982  161.5526 N.am    1  UNL1       -0.1740
     29 C         144.8570  141.9412  163.0027 C.2     1  UNL1        0.2687
     30 O         145.8314  141.4859  164.0483 O.2     1  UNL1       -0.2680
     31 C         143.5012  142.4394  163.4073 C.2     1  UNL1        0.0520
     32 C         143.1199  142.4824  164.8573 C.2     1  UNL1        0.0053
     33 C         141.7641  142.9806  165.2618 C.2     1  UNL1        0.0144
     34 C         140.7897  143.4359  164.2163 C.2     1  UNL1        0.0878
     35 C         141.1710  143.3929  162.7662 C.3     1  UNL1        0.0716
     36 C         142.5268  142.8947  162.3617 C.2     1  UNL1       -0.0063
     37 S         139.4339  143.9341  164.6208 S.O2    1  UNL1        0.0070
     38 C         138.0782  144.4324  165.0254 C.3     1  UNL1        0.1812
     39 O         139.6375  145.1646  163.7875 O.2     1  UNL1       -0.1689
     40 O         139.2303  142.7037  165.4542 O.2     1  UNL1       -0.1689
@<TRIPOS>BOND
     1    12    13    1
     2    13    14   ar
     3    14    15    1
     4    14    16   ar
     5    16    17   ar
     6    17    18   ar
     7    18    11    1
     8    11     5    1
     9     5     6    1
    10     6     7    1
    11     7     8    1
    12     8     4    1
    13     4     1    1
    14     1     2    1
    15     1    21    1
    16    21    22    1
    17    22    23   am
    18    23    24    2
    19    23    26    1
    20    26    27    1
    21    27    28    2
    22    28    29    1
    23    29    30    2
    24    29    31    1
    25    31    32    2
    26    32    33    1
    27    33    34    2
    28    34    37    1
    29    37    38    1
    30    37    39    2
    31    37    40    2
    32    34    35    1
    33    35    36    1
    34     8     9    1
    35     9    10    1
    36    18    19   ar
    37    19    20    1
    38    19    13   ar
    39    10     5    1
    40    36    26    2
    41    36    31    1
    42     2     3    1
    43    22    25    1
@<TRIPOS>MOLECULE
*****
 40 43 0 0 0
SMALL
GASTEIGER

@<TRIPOS>ATOM
      1 C         142.3532  138.8065  157.5782 C.3     1  UNL1        0.1459
      2 O         143.3596  137.7148  157.3650 O.3     1  UNL1       -0.3813
      3 H         144.2444  138.1030  157.2795 H       1  UNL1        0.2105
      4 C         140.9013  138.4667  157.7409 C.3     1  UNL1        0.1034
      5 C         138.7837  139.4276  161.5934 C.3     1  UNL1        0.1687
      6 C         140.0947  138.6992  161.6197 C.3     1  UNL1        0.0609
      7 C         140.8005  138.3789  160.3354 C.3     1  UNL1        0.0759
      8 N         140.1954  138.7870  159.0250 N.3     1  UNL1       -0.2704
      9 C         138.8844  139.5155  158.9988 C.3     1  UNL1        0.0759
     10 C         138.1785  139.8357  160.2829 C.3     1  UNL1        0.0609
     11 O         138.0778  139.7479  162.8776 O.3     1  UNL1       -0.4782
     12 C         140.3270  142.7250  166.4939 C.3     1  UNL1        0.0329
     13 C         139.3910  142.5774  165.3310 C.ar    1  UNL1        0.0023
     14 C         138.6437  143.7706  164.8136 C.ar    1  UNL1        0.0547
     15 CL        138.8324  145.1114  165.4589 Cl      1  UNL1       -0.0825
     16 C         137.7078  143.6229  163.6508 C.ar    1  UNL1        0.0142
     17 C         137.5191  142.2820  163.0054 C.ar    1  UNL1        0.0386
     18 C         138.2664  141.0888  163.5229 C.ar    1  UNL1        0.1485
     19 C         139.2024  141.2365  164.6857 C.ar    1  UNL1        0.0884
     20 CL        139.9497  140.0433  165.2033 Cl      1  UNL1       -0.0794
     21 C         142.7988  140.2379  157.6287 C.3     1  UNL1        0.1204
     22 N         142.0672  141.2210  158.4938 N.am    1  UNL1       -0.2985
     23 C         142.4654  142.6671  158.4876 C.2     1  UNL1        0.2469
     24 O         143.5953  143.1302  157.6164 O.2     1  UNL1       -0.2701
     25 H         141.3256  140.9171  159.0656 H       1  UNL1        0.1498
     26 C         141.7339  143.6502  159.3527 C.2     1  UNL1        0.0665
     27 C         140.6145  144.4670  158.7784 C.2     1  UNL1        0.0931
     28 N         139.8829  145.4501  159.6434 N.am    1  UNL1       -0.1740
     29 C         140.2707  145.6164  161.0828 C.2     1  UNL1        0.2687
     30 O         139.5392  146.5995  161.9479 O.2     1  UNL1       -0.2680
     31 C         141.3901  144.7996  161.6572 C.2     1  UNL1        0.0520
     32 C         141.7779  144.9659  163.0966 C.2     1  UNL1        0.0053
     33 C         142.8973  144.1492  163.6710 C.2     1  UNL1        0.0144
     34 C         143.6288  143.1661  162.8059 C.2     1  UNL1        0.0878
     35 C         143.2411  142.9998  161.3665 C.3     1  UNL1        0.0716
     36 C         142.1217  143.8165  160.7922 C.2     1  UNL1       -0.0063
     37 S         144.7483  142.3493  163.3803 S.O2    1  UNL1        0.0070
     38 C         145.8676  141.5326  163.9546 C.3     1  UNL1        0.1812
     39 O         145.1644  141.9466  161.9966 O.2     1  UNL1       -0.1689
     40 O         144.3321  142.7520  164.7640 O.2     1  UNL1       -0.1689
@<TRIPOS>BOND
     1    12    13    1
     2    13    14   ar
     3    14    15    1
     4    14    16   ar
     5    16    17   ar
     6    17    18   ar
     7    18    11    1
     8    11     5    1
     9     5     6    1
    10     6     7    1
    11     7     8    1
    12     8     4    1
    13     4     1    1
    14     1     2    1
    15     1    21    1
    16    21    22    1
    17    22    23   am
    18    23    24    2
    19    23    26    1
    20    26    27    1
    21    27    28    2
    22    28    29    1
    23    29    30    2
    24    29    31    1
    25    31    32    2
    26    32    33    1
    27    33    34    2
    28    34    37    1
    29    37    38    1
    30    37    39    2
    31    37    40    2
    32    34    35    1
    33    35    36    1
    34     8     9    1
    35     9    10    1
    36    18    19   ar
    37    19    20    1
    38    19    13   ar
    39    10     5    1
    40    36    26    2
    41    36    31    1
    42     2     3    1
    43    22    25    1
@<TRIPOS>MOLECULE
*****
 40 43 0 0 0
SMALL
GASTEIGER

@<TRIPOS>ATOM
      1 C         140.7738  144.6877  158.3555 C.3     1  UNL1        0.1459
      2 O         139.9591  145.5448  157.4328 O.3     1  UNL1       -0.3813
      3 H         139.5354  144.9862  156.7624 H       1  UNL1        0.2105
      4 C         141.5335  145.3150  159.4866 C.3     1  UNL1        0.1034
      5 C         140.4628  144.3190  163.7423 C.3     1  UNL1        0.1687
      6 C         139.5135  145.1153  162.8968 C.3     1  UNL1        0.0609
      7 C         139.8705  145.4473  161.4782 C.3     1  UNL1        0.0759
      8 N         141.1766  144.9830  160.9051 N.3     1  UNL1       -0.2704
      9 C         142.1258  144.1867  161.7506 C.3     1  UNL1        0.0759
     10 C         141.7689  143.8547  163.1692 C.3     1  UNL1        0.0609
     11 O         140.1058  143.9870  165.1608 O.3     1  UNL1       -0.4782
     12 C         140.1254  139.8902  168.3571 C.3     1  UNL1        0.0329
     13 C         139.6346  140.5615  167.1087 C.ar    1  UNL1        0.0023
     14 C         138.6628  139.8558  166.2101 C.ar    1  UNL1        0.0547
     15 CL        138.1818  138.4787  166.5598 Cl      1  UNL1       -0.0825
     16 C         138.1720  140.5271  164.9617 C.ar    1  UNL1        0.0142
     17 C         138.6530  141.9042  164.6120 C.ar    1  UNL1        0.0386
     18 C         139.6248  142.6099  165.5106 C.ar    1  UNL1        0.1485
     19 C         140.1156  141.9386  166.7589 C.ar    1  UNL1        0.0884
     20 CL        141.0875  142.6443  167.6576 Cl      1  UNL1       -0.0794
     21 C         140.8288  143.2032  158.1473 C.3     1  UNL1        0.1204
     22 N         140.3088  142.2775  159.2068 N.am    1  UNL1       -0.2985
     23 C         140.8439  140.8800  159.3103 C.2     1  UNL1        0.2469
     24 O         141.8991  140.4082  158.3542 O.2     1  UNL1       -0.2701
     25 H         139.6163  142.5871  159.8343 H       1  UNL1        0.1498
     26 C         140.3239  139.9543  160.3698 C.2     1  UNL1        0.0665
     27 C         139.0275  139.2290  160.1617 C.2     1  UNL1        0.0931
     28 N         138.5075  138.3033  161.2212 N.am    1  UNL1       -0.1740
     29 C         139.2839  138.1029  162.4889 C.2     1  UNL1        0.2687
     30 O         138.7639  137.1771  163.5485 O.2     1  UNL1       -0.2680
     31 C         140.5803  138.8282  162.6971 C.2     1  UNL1        0.0520
     32 C         141.3566  138.6278  163.9648 C.2     1  UNL1        0.0053
     33 C         142.6530  139.3531  164.1729 C.2     1  UNL1        0.0144
     34 C         143.1730  140.2788  163.1134 C.2     1  UNL1        0.0878
     35 C         142.3967  140.4792  161.8457 C.3     1  UNL1        0.0716
     36 C         141.1003  139.7539  161.6376 C.2     1  UNL1       -0.0063
     37 S         144.4694  141.0041  163.3216 S.O2    1  UNL1        0.0070
     38 C         145.7658  141.7294  163.5298 C.3     1  UNL1        0.1812
     39 O         144.0410  141.3708  164.7115 O.2     1  UNL1       -0.1689
     40 O         144.8978  140.6374  161.9317 O.2     1  UNL1       -0.1689
@<TRIPOS>BOND
     1    12    13    1
     2    13    14   ar
     3    14    15    1
     4    14    16   ar
     5    16    17   ar
     6    17    18   ar
     7    18    11    1
     8    11     5    1
     9     5     6    1
    10     6     7    1
    11     7     8    1
    12     8     4    1
    13     4     1    1
    14     1     2    1
    15     1    21    1
    16    21    22    1
    17    22    23   am
    18    23    24    2
    19    23    26    1
    20    26    27    1
    21    27    28    2
    22    28    29    1
    23    29    30    2
    24    29    31    1
    25    31    32    2
    26    32    33    1
    27    33    34    2
    28    34    37    1
    29    37    38    1
    30    37    39    2
    31    37    40    2
    32    34    35    1
    33    35    36    1
    34     8     9    1
    35     9    10    1
    36    18    19   ar
    37    19    20    1
    38    19    13   ar
    39    10     5    1
    40    36    26    2
    41    36    31    1
    42     2     3    1
    43    22    25    1
@<TRIPOS>MOLECULE
*****
 40 43 0 0 0
SMALL
GASTEIGER

@<TRIPOS>ATOM
      1 C         139.1912  142.4368  157.8571 C.3     1  UNL1        0.1459
      2 O         139.0172  141.7719  156.5239 O.3     1  UNL1       -0.3813
      3 H         139.8213  141.8926  155.9950 H       1  UNL1        0.2105
      4 C         138.0827  142.3942  158.8668 C.3     1  UNL1        0.1034
      5 C         138.4072  139.6938  162.4518 C.3     1  UNL1        0.1687
      6 C         138.5023  141.1811  162.6221 C.3     1  UNL1        0.0609
      7 C         138.3941  142.0812  161.4270 C.3     1  UNL1        0.0759
      8 N         138.1909  141.4941  160.0618 N.3     1  UNL1       -0.2704
      9 C         138.0958  140.0068  159.8915 C.3     1  UNL1        0.0759
     10 C         138.2040  139.1067  161.0865 C.3     1  UNL1        0.0609
     11 O         138.5154  138.7937  163.6468 O.3     1  UNL1       -0.4782
     12 C         143.4114  138.6525  165.3817 C.3     1  UNL1        0.0329
     13 C         141.9707  139.0172  165.5861 C.ar    1  UNL1        0.0023
     14 C         141.5375  139.6759  166.8621 C.ar    1  UNL1        0.0547
     15 CL        142.5449  139.9700  167.9339 Cl      1  UNL1       -0.0825
     16 C         140.0970  140.0406  167.0664 C.ar    1  UNL1        0.0142
     17 C         139.0896  139.7465  165.9946 C.ar    1  UNL1        0.0386
     18 C         139.5228  139.0878  164.7186 C.ar    1  UNL1        0.1485
     19 C         140.9633  138.7231  164.5143 C.ar    1  UNL1        0.0884
     20 CL        141.3966  138.0644  163.2382 Cl      1  UNL1       -0.0794
     21 C         140.4737  143.1444  158.1807 C.3     1  UNL1        0.1204
     22 N         141.3953  142.5866  159.2244 N.am    1  UNL1       -0.2985
     23 C         142.2396  143.5108  160.0507 C.2     1  UNL1        0.2469
     24 O         142.1623  144.9930  159.8333 O.2     1  UNL1       -0.2701
     25 H         141.4460  141.6138  159.3671 H       1  UNL1        0.1498
     26 C         143.1613  142.9530  161.0945 C.2     1  UNL1        0.0665
     27 C         144.4878  142.3787  160.6940 C.2     1  UNL1        0.0931
     28 N         145.4095  141.8209  161.7377 N.am    1  UNL1       -0.1740
     29 C         145.0045  141.8372  163.1819 C.2     1  UNL1        0.2687
     30 O         145.9262  141.2794  164.2257 O.2     1  UNL1       -0.2680
     31 C         143.6779  142.4115  163.5824 C.2     1  UNL1        0.0520
     32 C         143.2730  142.4279  165.0266 C.2     1  UNL1        0.0053
     33 C         141.9464  143.0021  165.4271 C.2     1  UNL1        0.0144
     34 C         141.0247  143.5600  164.3833 C.2     1  UNL1        0.0878
     35 C         141.4297  143.5436  162.9392 C.3     1  UNL1        0.0716
     36 C         142.7563  142.9694  162.5387 C.2     1  UNL1       -0.0063
     37 S         139.6981  144.1342  164.7839 S.O2    1  UNL1        0.0070
     38 C         138.3715  144.7085  165.1843 C.3     1  UNL1        0.1812
     39 O         139.5787  144.7941  163.4421 O.2     1  UNL1       -0.1689
     40 O         139.8175  143.4744  166.1256 O.2     1  UNL1       -0.1689
@<TRIPOS>BOND
     1    12    13    1
     2    13    14   ar
     3    14    15    1
     4    14    16   ar
     5    16    17   ar
     6    17    18   ar
     7    18    11    1
     8    11     5    1
     9     5     6    1
    10     6     7    1
    11     7     8    1
    12     8     4    1
    13     4     1    1
    14     1     2    1
    15     1    21    1
    16    21    22    1
    17    22    23   am
    18    23    24    2
    19    23    26    1
    20    26    27    1
    21    27    28    2
    22    28    29    1
    23    29    30    2
    24    29    31    1
    25    31    32    2
    26    32    33    1
    27    33    34    2
    28    34    37    1
    29    37    38    1
    30    37    39    2
    31    37    40    2
    32    34    35    1
    33    35    36    1
    34     8     9    1
    35     9    10    1
    36    18    19   ar
    37    19    20    1
    38    19    13   ar
    39    10     5    1
    40    36    26    2
    41    36    31    1
    42     2     3    1
    43    22    25    1
@<TRIPOS>MOLECULE
*****
 40 43 0 0 0
SMALL
GASTEIGER

@<TRIPOS>ATOM
      1 C         138.3803  138.3747  166.1937 C.3     1  UNL1        0.1459
      2 O         137.0929  138.1457  166.9284 O.3     1  UNL1       -0.3813
      3 H         136.8679  138.9378  167.4411 H       1  UNL1        0.2105
      4 C         138.9495  137.2940  165.3230 C.3     1  UNL1        0.1034
      5 C         140.3968  138.2739  161.1763 C.3     1  UNL1        0.1687
      6 C         141.3854  137.9905  162.2683 C.3     1  UNL1        0.0609
      7 C         140.9029  137.6639  163.6506 C.3     1  UNL1        0.0759
      8 N         139.4319  137.6206  163.9408 N.3     1  UNL1       -0.2704
      9 C         138.4434  137.9040  162.8488 C.3     1  UNL1        0.0759
     10 C         138.9258  138.2306  161.4666 C.3     1  UNL1        0.0609
     11 O         140.8792  138.6005  159.7941 O.3     1  UNL1       -0.4782
     12 C         143.9579  142.6310  158.6640 C.3     1  UNL1        0.0329
     13 C         142.5841  142.0468  158.8111 C.ar    1  UNL1        0.0023
     14 C         141.3761  142.8937  158.5403 C.ar    1  UNL1        0.0547
     15 CL        141.5417  144.3247  158.1224 Cl      1  UNL1       -0.0825
     16 C         140.0024  142.3095  158.6874 C.ar    1  UNL1        0.0142
     17 C         139.8368  140.8784  159.1054 C.ar    1  UNL1        0.0386
     18 C         141.0449  140.0316  159.3762 C.ar    1  UNL1        0.1485
     19 C         142.4185  140.6158  159.2291 C.ar    1  UNL1        0.0884
     20 CL        143.6267  139.7689  159.4999 Cl      1  UNL1       -0.0794
     21 C         139.0987  139.6846  166.3295 C.3     1  UNL1        0.1204
     22 N         139.0744  140.6737  165.2021 N.am    1  UNL1       -0.2985
     23 C         139.5326  142.0834  165.4312 C.2     1  UNL1        0.2469
     24 O         140.0151  142.5042  166.7878 O.2     1  UNL1       -0.2701
     25 H         138.7577  140.3976  164.3117 H       1  UNL1        0.1498
     26 C         139.5083  143.0726  164.3038 C.2     1  UNL1        0.0665
     27 C         138.2315  143.7761  163.9507 C.2     1  UNL1        0.0931
     28 N         138.2073  144.7653  162.8233 N.am    1  UNL1       -0.1740
     29 C         139.4598  145.0508  162.0490 C.2     1  UNL1        0.2687
     30 O         139.4355  146.0399  160.9216 O.2     1  UNL1       -0.2680
     31 C         140.7367  144.3472  162.4021 C.2     1  UNL1        0.0520
     32 C         141.9892  144.6328  161.6278 C.2     1  UNL1        0.0053
     33 C         143.2660  143.9292  161.9809 C.2     1  UNL1        0.0144
     34 C         143.2903  142.9401  163.1083 C.2     1  UNL1        0.0878
     35 C         142.0377  142.6545  163.8826 C.3     1  UNL1        0.0716
     36 C         140.7610  143.3581  163.5295 C.2     1  UNL1       -0.0063
     37 S         144.5672  142.2365  163.4614 S.O2    1  UNL1        0.0070
     38 C         145.8440  141.5330  163.8144 C.3     1  UNL1        0.1812
     39 O         145.0292  142.3617  162.0399 O.2     1  UNL1       -0.1689
     40 O         144.1051  142.1113  164.8829 O.2     1  UNL1       -0.1689
@<TRIPOS>BOND
     1    12    13    1
     2    13    14   ar
     3    14    15    1
     4    14    16   ar
     5    16    17   ar
     6    17    18   ar
     7    18    11    1
     8    11     5    1
     9     5     6    1
    10     6     7    1
    11     7     8    1
    12     8     4    1
    13     4     1    1
    14     1     2    1
    15     1    21    1
    16    21    22    1
    17    22    23   am
    18    23    24    2
    19    23    26    1
    20    26    27    1
    21    27    28    2
    22    28    29    1
    23    29    30    2
    24    29    31    1
    25    31    32    2
    26    32    33    1
    27    33    34    2
    28    34    37    1
    29    37    38    1
    30    37    39    2
    31    37    40    2
    32    34    35    1
    33    35    36    1
    34     8     9    1
    35     9    10    1
    36    18    19   ar
    37    19    20    1
    38    19    13   ar
    39    10     5    1
    40    36    26    2
    41    36    31    1
    42     2     3    1
    43    22    25    1
@<TRIPOS>MOLECULE
*****
 40 43 0 0 0
SMALL
GASTEIGER

@<TRIPOS>ATOM
      1 C         139.5050  141.9043  158.5786 C.3     1  UNL1        0.1459
      2 O         140.3111  141.7417  157.3241 O.3     1  UNL1       -0.3813
      3 H         140.8543  142.5330  157.1840 H       1  UNL1        0.2105
      4 C         138.5772  140.8118  159.0208 C.3     1  UNL1        0.1034
      5 C         138.8949  139.1387  163.1861 C.3     1  UNL1        0.1687
      6 C         139.8125  138.6445  162.1073 C.3     1  UNL1        0.0609
      7 C         139.7065  139.2022  160.7188 C.3     1  UNL1        0.0759
      8 N         138.6830  140.2541  160.4092 N.3     1  UNL1       -0.2704
      9 C         137.7654  140.7483  161.4880 C.3     1  UNL1        0.0759
     10 C         137.8713  140.1906  162.8764 C.3     1  UNL1        0.0609
     11 O         139.0007  138.5810  164.5745 O.3     1  UNL1       -0.4782
     12 C         139.0760  140.3112  169.4736 C.3     1  UNL1        0.0329
     13 C         139.6929  140.2508  168.1076 C.ar    1  UNL1        0.0023
     14 C         140.9642  140.9950  167.8252 C.ar    1  UNL1        0.0547
     15 CL        141.6187  141.7997  168.9088 Cl      1  UNL1       -0.0825
     16 C         141.5811  140.9346  166.4593 C.ar    1  UNL1        0.0142
     17 C         140.9266  140.1299  165.3757 C.ar    1  UNL1        0.0386
     18 C         139.6552  139.3857  165.6581 C.ar    1  UNL1        0.1485
     19 C         139.0384  139.4461  167.0240 C.ar    1  UNL1        0.0884
     20 CL        137.7670  138.7018  167.3064 Cl      1  UNL1       -0.0794
     21 C         139.6267  143.1594  159.3909 C.3     1  UNL1        0.1204
     22 N         140.4020  143.1495  160.6750 N.am    1  UNL1       -0.2985
     23 C         141.7941  143.7064  160.7149 C.2     1  UNL1        0.2469
     24 O         142.4111  144.2733  159.4707 O.2     1  UNL1       -0.2701
     25 H         139.9970  142.7774  161.4916 H       1  UNL1        0.1498
     26 C         142.5694  143.6965  161.9990 C.2     1  UNL1        0.0665
     27 C         142.7005  144.9542  162.8058 C.2     1  UNL1        0.0931
     28 N         143.4757  144.9442  164.0899 N.am    1  UNL1       -0.1740
     29 C         144.1199  143.6765  164.5672 C.2     1  UNL1        0.2687
     30 O         144.8951  143.6666  165.8513 O.2     1  UNL1       -0.2680
     31 C         143.9888  142.4187  163.7605 C.2     1  UNL1        0.0520
     32 C         144.6330  141.1510  164.2379 C.2     1  UNL1        0.0053
     33 C         144.5019  139.8933  163.4312 C.2     1  UNL1        0.0144
     34 C         143.7266  139.9032  162.1471 C.2     1  UNL1        0.0878
     35 C         143.0825  141.1709  161.6697 C.3     1  UNL1        0.0716
     36 C         143.2136  142.4287  162.4764 C.2     1  UNL1       -0.0063
     37 S         143.5956  138.6454  161.3403 S.O2    1  UNL1        0.0070
     38 C         143.4645  137.3876  160.5337 C.3     1  UNL1        0.1812
     39 O         143.0553  137.9303  162.5431 O.2     1  UNL1       -0.1689
     40 O         144.1359  139.3604  160.1375 O.2     1  UNL1       -0.1689
@<TRIPOS>BOND
     1    12    13    1
     2    13    14   ar
     3    14    15    1
     4    14    16   ar
     5    16    17   ar
     6    17    18   ar
     7    18    11    1
     8    11     5    1
     9     5     6    1
    10     6     7    1
    11     7     8    1
    12     8     4    1
    13     4     1    1
    14     1     2    1
    15     1    21    1
    16    21    22    1
    17    22    23   am
    18    23    24    2
    19    23    26    1
    20    26    27    1
    21    27    28    2
    22    28    29    1
    23    29    30    2
    24    29    31    1
    25    31    32    2
    26    32    33    1
    27    33    34    2
    28    34    37    1
    29    37    38    1
    30    37    39    2
    31    37    40    2
    32    34    35    1
    33    35    36    1
    34     8     9    1
    35     9    10    1
    36    18    19   ar
    37    19    20    1
    38    19    13   ar
    39    10     5    1
    40    36    26    2
    41    36    31    1
    42     2     3    1
    43    22    25    1
@<TRIPOS>MOLECULE
*****
 40 43 0 0 0
SMALL
GASTEIGER

@<TRIPOS>ATOM
      1 C         143.1724  142.8166  157.8323 C.3     1  UNL1        0.1459
      2 O         143.3668  143.8727  156.7851 O.3     1  UNL1       -0.3813
      3 H         142.5085  144.2614  156.5546 H       1  UNL1        0.2105
      4 C         144.3539  142.0598  158.3627 C.3     1  UNL1        0.1034
      5 C         144.4870  140.8425  162.6928 C.3     1  UNL1        0.1687
      6 C         144.0036  139.8727  161.6557 C.3     1  UNL1        0.0609
      7 C         143.9593  140.2785  160.2122 C.3     1  UNL1        0.0759
      8 N         144.3983  141.6541  159.8060 N.3     1  UNL1       -0.2704
      9 C         144.8816  142.6239  160.8432 C.3     1  UNL1        0.0759
     10 C         144.9260  142.2182  162.2866 C.3     1  UNL1        0.0609
     11 O         144.5313  140.4368  164.1362 O.3     1  UNL1       -0.4782
     12 C         140.8351  142.4862  167.1591 C.3     1  UNL1        0.0329
     13 C         141.4086  141.3111  166.4240 C.ar    1  UNL1        0.0023
     14 C         140.7074  139.9858  166.4652 C.ar    1  UNL1        0.0547
     15 CL        139.4328  139.8354  167.2416 Cl      1  UNL1       -0.0825
     16 C         141.2809  138.8107  165.7302 C.ar    1  UNL1        0.0142
     17 C         142.5556  138.9611  164.9538 C.ar    1  UNL1        0.0386
     18 C         143.2567  140.2864  164.9126 C.ar    1  UNL1        0.1485
     19 C         142.6832  141.4615  165.6476 C.ar    1  UNL1        0.0884
     20 CL        143.3844  142.7869  165.6064 Cl      1  UNL1       -0.0794
     21 C         141.7964  142.5171  158.3492 C.3     1  UNL1        0.1204
     22 N         141.4264  142.8870  159.7550 N.am    1  UNL1       -0.2985
     23 C         140.1301  143.5901  160.0291 C.2     1  UNL1        0.2469
     24 O         139.2037  143.9234  158.8973 O.2     1  UNL1       -0.2701
     25 H         142.0344  142.6683  160.4978 H       1  UNL1        0.1498
     26 C         139.7601  143.9600  161.4349 C.2     1  UNL1        0.0665
     27 C         140.0133  145.3510  161.9358 C.2     1  UNL1        0.0931
     28 N         139.6434  145.7209  163.3416 N.am    1  UNL1       -0.1740
     29 C         139.0202  144.6998  164.2465 C.2     1  UNL1        0.2687
     30 O         138.6502  145.0696  165.6523 O.2     1  UNL1       -0.2680
     31 C         138.7669  143.3087  163.7456 C.2     1  UNL1        0.0520
     32 C         138.1437  142.2876  164.6505 C.2     1  UNL1        0.0053
     33 C         137.8905  140.8966  164.1496 C.2     1  UNL1        0.0144
     34 C         138.2605  140.5267  162.7438 C.2     1  UNL1        0.0878
     35 C         138.8837  141.5478  161.8389 C.3     1  UNL1        0.0716
     36 C         139.1369  142.9388  162.3398 C.2     1  UNL1       -0.0063
     37 S         138.0072  139.1356  162.2429 S.O2    1  UNL1        0.0070
     38 C         137.7540  137.7446  161.7419 C.3     1  UNL1        0.1812
     39 O         137.4570  139.6960  160.9649 O.2     1  UNL1       -0.1689
     40 O         138.5574  138.5752  163.5208 O.2     1  UNL1       -0.1689
@<TRIPOS>BOND
     1    12    13    1
     2    13    14   ar
     3    14    15    1
     4    14    16   ar
     5    16    17   ar
     6    17    18   ar
     7    18    11    1
     8    11     5    1
     9     5     6    1
    10     6     7    1
    11     7     8    1
    12     8     4    1
    13     4     1    1
    14     1     2    1
    15     1    21    1
    16    21    22    1
    17    22    23   am
    18    23    24    2
    19    23    26    1
    20    26    27    1
    21    27    28    2
    22    28    29    1
    23    29    30    2
    24    29    31    1
    25    31    32    2
    26    32    33    1
    27    33    34    2
    28    34    37    1
    29    37    38    1
    30    37    39    2
    31    37    40    2
    32    34    35    1
    33    35    36    1
    34     8     9    1
    35     9    10    1
    36    18    19   ar
    37    19    20    1
    38    19    13   ar
    39    10     5    1
    40    36    26    2
    41    36    31    1
    42     2     3    1
    43    22    25    1
