@<TRIPOS>MOLECULE
*****
 26 28 0 0 0
SMALL
GASTEIGER

@<TRIPOS>ATOM
      1 C         142.2492  140.1975  167.4054 C.3     1  UNL1        0.0716
      2 C         140.9887  139.9293  166.6377 C.3     1  UNL1        0.0199
      3 C         140.4555  140.9603  165.6876 C.3     1  UNL1        0.0060
      4 C         141.1827  142.2594  165.5051 C.3     1  UNL1        0.0224
      5 C         142.4431  142.5277  166.2728 C.3     1  UNL1        0.0060
      6 C         142.9764  141.4967  167.2229 C.3     1  UNL1        0.0199
      7 C         140.6494  143.2904  164.5551 C.ar    1  UNL1       -0.0223
      8 C         139.1781  143.3590  164.2711 C.ar    1  UNL1       -0.0012
      9 C         138.6448  144.3900  163.3211 C.ar    1  UNL1        0.0363
     10 C         139.5829  145.3524  162.6548 C.ar    1  UNL1        0.1337
     11 O         139.0495  146.3834  161.7047 O.3     1  UNL1       -0.5055
     12 C         141.0541  145.2838  162.9387 C.ar    1  UNL1        0.0363
     13 C         141.5874  144.2528  163.8888 C.ar    1  UNL1       -0.0012
     14 H         138.1305  146.4262  161.5274 H       1  UNL1        0.2922
     15 O         141.1656  140.0279  170.1976 O.2     1  UNL1       -0.2751
     16 C         142.2406  139.0817  169.7516 C.2     1  UNL1        0.2228
     17 N         142.7825  139.1665  168.3554 N.am    1  UNL1       -0.3060
     18 H         143.4881  138.5455  168.0627 H       1  UNL1        0.1494
     19 C         142.7739  138.0507  170.7017 C.3     1  UNL1        0.0898
     20 C         143.9134  137.1675  170.2879 C.3     1  UNL1        0.0375
     21 C         144.7437  136.4770  171.3291 C.ar    1  UNL1       -0.0025
     22 C         145.7260  137.2621  172.1468 C.ar    1  UNL1       -0.0011
     23 C         146.5562  136.5716  173.1879 C.ar    1  UNL1        0.0204
     24 C         146.4041  135.0962  173.4113 C.ar    1  UNL1        0.0989
     25 N         145.4218  134.3112  172.5936 N.ar    1  UNL1       -0.2426
     26 C         144.5916  135.0016  171.5525 C.ar    1  UNL1        0.0946
@<TRIPOS>BOND
     1    15    16    2
     2    16    19    1
     3    19    20    1
     4    20    21    1
     5    21    22   ar
     6    22    23   ar
     7    23    24   ar
     8    24    25   ar
     9    25    26   ar
    10    16    17   am
    11     1    17    1
    12     1     2    1
    13     2     3    1
    14     3     4    1
    15     4     7    1
    16     7     8   ar
    17     8     9   ar
    18     9    10   ar
    19    10    11    1
    20    10    12   ar
    21    12    13   ar
    22     4     5    1
    23     5     6    1
    24    26    21   ar
    25     6     1    1
    26    13     7   ar
    27    17    18    1
    28    11    14    1
@<TRIPOS>MOLECULE
*****
 26 28 0 0 0
SMALL
GASTEIGER

@<TRIPOS>ATOM
      1 C         140.8629  144.6448  163.5407 C.3     1  UNL1        0.0716
      2 C         139.5862  144.7960  164.3137 C.3     1  UNL1        0.0199
      3 C         139.3620  143.9874  165.5570 C.3     1  UNL1        0.0060
      4 C         140.4143  143.0276  166.0274 C.3     1  UNL1        0.0224
      5 C         141.6909  142.8763  165.2545 C.3     1  UNL1        0.0060
      6 C         141.9152  143.6849  164.0111 C.3     1  UNL1        0.0199
      7 C         140.1901  142.2190  167.2707 C.ar    1  UNL1       -0.0223
      8 C         139.7952  140.7757  167.1657 C.ar    1  UNL1       -0.0012
      9 C         139.5710  139.9671  168.4090 C.ar    1  UNL1        0.0363
     10 C         139.7416  140.6018  169.7573 C.ar    1  UNL1        0.1337
     11 O         139.5173  139.7931  171.0007 O.3     1  UNL1       -0.5055
     12 C         140.1364  142.0450  169.8624 C.ar    1  UNL1        0.0363
     13 C         140.3607  142.8537  168.6191 C.ar    1  UNL1       -0.0012
     14 H         139.2707  138.8915  170.9351 H       1  UNL1        0.2922
     15 O         139.7202  143.7219  160.9249 O.2     1  UNL1       -0.2751
     16 C         140.5158  144.9919  160.9895 C.2     1  UNL1        0.2228
     17 N         141.0871  145.4534  162.2974 N.am    1  UNL1       -0.3060
     18 H         141.6093  146.2869  162.3398 H       1  UNL1        0.1494
     19 C         140.7400  145.8005  159.7461 C.3     1  UNL1        0.0898
     20 C         141.0120  145.1111  158.4420 C.3     1  UNL1        0.0375
     21 C         140.0239  145.2154  157.3181 C.ar    1  UNL1       -0.0025
     22 C         139.7542  146.5446  156.6776 C.ar    1  UNL1       -0.0011
     23 C         138.7662  146.6488  155.5538 C.ar    1  UNL1        0.0204
     24 C         138.0479  145.4239  155.0706 C.ar    1  UNL1        0.0989
     25 N         138.3176  144.0947  155.7112 N.ar    1  UNL1       -0.2426
     26 C         139.3056  143.9904  156.8349 C.ar    1  UNL1        0.0946
@<TRIPOS>BOND
     1    15    16    2
     2    16    19    1
     3    19    20    1
     4    20    21    1
     5    21    22   ar
     6    22    23   ar
     7    23    24   ar
     8    24    25   ar
     9    25    26   ar
    10    16    17   am
    11     1    17    1
    12     1     2    1
    13     2     3    1
    14     3     4    1
    15     4     7    1
    16     7     8   ar
    17     8     9   ar
    18     9    10   ar
    19    10    11    1
    20    10    12   ar
    21    12    13   ar
    22     4     5    1
    23     5     6    1
    24    26    21   ar
    25     6     1    1
    26    13     7   ar
    27    17    18    1
    28    11    14    1
@<TRIPOS>MOLECULE
*****
 26 28 0 0 0
SMALL
GASTEIGER

@<TRIPOS>ATOM
      1 C         141.8888  138.2055  164.2349 C.3     1  UNL1        0.0716
      2 C         140.5136  138.6772  164.6044 C.3     1  UNL1        0.0199
      3 C         140.2775  139.3337  165.9323 C.3     1  UNL1        0.0060
      4 C         141.4166  139.5184  166.8907 C.3     1  UNL1        0.0224
      5 C         142.7917  139.0467  166.5212 C.3     1  UNL1        0.0060
      6 C         143.0278  138.3902  165.1933 C.3     1  UNL1        0.0199
      7 C         141.1805  140.1748  168.2186 C.ar    1  UNL1       -0.0223
      8 C         139.7840  140.5096  168.6521 C.ar    1  UNL1       -0.0012
      9 C         139.5479  141.1660  169.9799 C.ar    1  UNL1        0.0363
     10 C         140.7082  141.4877  170.8745 C.ar    1  UNL1        0.1337
     11 O         140.4721  142.1441  172.2024 O.3     1  UNL1       -0.5055
     12 C         142.1047  141.1529  170.4411 C.ar    1  UNL1        0.0363
     13 C         142.3408  140.4964  169.1131 C.ar    1  UNL1       -0.0012
     14 H         139.5998  142.3533  172.4731 H       1  UNL1        0.2922
     15 O         143.2518  139.7211  162.0337 O.2     1  UNL1       -0.2751
     16 C         142.8064  138.3069  161.8064 C.2     1  UNL1        0.2228
     17 N         142.1249  137.5491  162.9070 N.am    1  UNL1       -0.3060
     18 H         141.8325  136.6209  162.7578 H       1  UNL1        0.1494
     19 C         143.0425  137.6504  160.4785 C.3     1  UNL1        0.0898
     20 C         142.8824  138.4394  159.2128 C.3     1  UNL1        0.0375
     21 C         141.8672  138.0203  158.1911 C.ar    1  UNL1       -0.0025
     22 C         142.2774  137.1529  157.0382 C.ar    1  UNL1       -0.0011
     23 C         141.2623  136.7339  156.0165 C.ar    1  UNL1        0.0204
     24 C         139.8369  137.1823  156.1478 C.ar    1  UNL1        0.0989
     25 N         139.4267  138.0497  157.3007 N.ar    1  UNL1       -0.2426
     26 C         140.4418  138.4687  158.3224 C.ar    1  UNL1        0.0946
@<TRIPOS>BOND
     1    15    16    2
     2    16    19    1
     3    19    20    1
     4    20    21    1
     5    21    22   ar
     6    22    23   ar
     7    23    24   ar
     8    24    25   ar
     9    25    26   ar
    10    16    17   am
    11     1    17    1
    12     1     2    1
    13     2     3    1
    14     3     4    1
    15     4     7    1
    16     7     8   ar
    17     8     9   ar
    18     9    10   ar
    19    10    11    1
    20    10    12   ar
    21    12    13   ar
    22     4     5    1
    23     5     6    1
    24    26    21   ar
    25     6     1    1
    26    13     7   ar
    27    17    18    1
    28    11    14    1
@<TRIPOS>MOLECULE
*****
 26 28 0 0 0
SMALL
GASTEIGER

@<TRIPOS>ATOM
      1 C         139.2607  139.7967  163.9983 C.3     1  UNL1        0.0716
      2 C         140.4223  140.7345  164.1447 C.3     1  UNL1        0.0199
      3 C         140.8776  141.1570  165.5100 C.3     1  UNL1        0.0060
      4 C         140.1714  140.6417  166.7290 C.3     1  UNL1        0.0224
      5 C         139.0099  139.7040  166.5826 C.3     1  UNL1        0.0060
      6 C         138.5545  139.2815  165.2172 C.3     1  UNL1        0.0199
      7 C         140.6267  141.0642  168.0943 C.ar    1  UNL1       -0.0223
      8 C         140.7355  142.5220  168.4309 C.ar    1  UNL1       -0.0012
      9 C         141.1908  142.9445  169.7962 C.ar    1  UNL1        0.0363
     10 C         141.5374  141.9093  170.8250 C.ar    1  UNL1        0.1337
     11 O         141.9927  142.3318  172.1904 O.3     1  UNL1       -0.5055
     12 C         141.4286  140.4516  170.4884 C.ar    1  UNL1        0.0363
     13 C         140.9733  140.0291  169.1230 C.ar    1  UNL1       -0.0012
     14 H         142.0607  143.2424  172.4006 H       1  UNL1        0.2922
     15 O         137.1081  141.3408  162.5905 O.2     1  UNL1       -0.2751
     16 C         137.7291  140.1463  161.9291 C.2     1  UNL1        0.2228
     17 N         138.8054  139.3742  162.6330 N.am    1  UNL1       -0.3060
     18 H         139.2129  138.5902  162.1988 H       1  UNL1        0.1494
     19 C         137.2737  139.7238  160.5637 C.3     1  UNL1        0.0898
     20 C         138.0382  140.1609  159.3495 C.3     1  UNL1        0.0375
     21 C         139.0143  141.2959  159.4461 C.ar    1  UNL1       -0.0025
     22 C         140.4686  141.0161  159.6843 C.ar    1  UNL1       -0.0011
     23 C         141.4446  142.1510  159.7809 C.ar    1  UNL1        0.0204
     24 C         140.9663  143.5657  159.6394 C.ar    1  UNL1        0.0989
     25 N         139.5120  143.8454  159.4013 N.ar    1  UNL1       -0.2426
     26 C         138.5360  142.7105  159.3046 C.ar    1  UNL1        0.0946
@<TRIPOS>BOND
     1    15    16    2
     2    16    19    1
     3    19    20    1
     4    20    21    1
     5    21    22   ar
     6    22    23   ar
     7    23    24   ar
     8    24    25   ar
     9    25    26   ar
    10    16    17   am
    11     1    17    1
    12     1     2    1
    13     2     3    1
    14     3     4    1
    15     4     7    1
    16     7     8   ar
    17     8     9   ar
    18     9    10   ar
    19    10    11    1
    20    10    12   ar
    21    12    13   ar
    22     4     5    1
    23     5     6    1
    24    26    21   ar
    25     6     1    1
    26    13     7   ar
    27    17    18    1
    28    11    14    1
@<TRIPOS>MOLECULE
*****
 26 28 0 0 0
SMALL
GASTEIGER

@<TRIPOS>ATOM
      1 C         139.5009  139.7782  163.7335 C.3     1  UNL1        0.0716
      2 C         140.7124  140.6080  164.0399 C.3     1  UNL1        0.0199
      3 C         141.1748  140.7651  165.4581 C.3     1  UNL1        0.0060
      4 C         140.4258  140.0923  166.5701 C.3     1  UNL1        0.0224
      5 C         139.2144  139.2625  166.2638 C.3     1  UNL1        0.0060
      6 C         138.7519  139.1054  164.8454 C.3     1  UNL1        0.0199
      7 C         140.8882  140.2494  167.9883 C.ar    1  UNL1       -0.0223
      8 C         142.3410  140.4799  168.2824 C.ar    1  UNL1       -0.0012
      9 C         142.8034  140.6369  169.7006 C.ar    1  UNL1        0.0363
     10 C         141.8131  140.5635  170.8248 C.ar    1  UNL1        0.1337
     11 O         142.2756  140.7206  172.2432 O.3     1  UNL1       -0.5055
     12 C         140.3604  140.3331  170.5308 C.ar    1  UNL1        0.0363
     13 C         139.8979  140.1760  169.1125 C.ar    1  UNL1       -0.0012
     14 H         143.1830  140.8646  172.4268 H       1  UNL1        0.2922
     15 O         140.4891  137.4786  162.0797 O.2     1  UNL1       -0.2751
     16 C         139.5326  138.4713  161.4883 C.2     1  UNL1        0.2228
     17 N         139.0385  139.6211  162.3153 N.am    1  UNL1       -0.3060
     18 H         138.4107  140.2726  161.9272 H       1  UNL1        0.1494
     19 C         139.0702  138.3142  160.0700 C.3     1  UNL1        0.0898
     20 C         139.7983  139.0153  158.9617 C.3     1  UNL1        0.0375
     21 C         140.7032  138.2399  158.0506 C.ar    1  UNL1       -0.0025
     22 C         140.1285  137.4788  156.8928 C.ar    1  UNL1       -0.0011
     23 C         141.0333  136.7035  155.9818 C.ar    1  UNL1        0.0204
     24 C         142.5128  136.6892  156.2285 C.ar    1  UNL1        0.0989
     25 N         143.0875  137.4502  157.3863 N.ar    1  UNL1       -0.2426
     26 C         142.1827  138.2256  158.2973 C.ar    1  UNL1        0.0946
@<TRIPOS>BOND
     1    15    16    2
     2    16    19    1
     3    19    20    1
     4    20    21    1
     5    21    22   ar
     6    22    23   ar
     7    23    24   ar
     8    24    25   ar
     9    25    26   ar
    10    16    17   am
    11     1    17    1
    12     1     2    1
    13     2     3    1
    14     3     4    1
    15     4     7    1
    16     7     8   ar
    17     8     9   ar
    18     9    10   ar
    19    10    11    1
    20    10    12   ar
    21    12    13   ar
    22     4     5    1
    23     5     6    1
    24    26    21   ar
    25     6     1    1
    26    13     7   ar
    27    17    18    1
    28    11    14    1
@<TRIPOS>MOLECULE
*****
 26 28 0 0 0
SMALL
GASTEIGER

@<TRIPOS>ATOM
      1 C         143.8279  139.8038  164.3419 C.3     1  UNL1        0.0716
      2 C         143.4063  138.7562  165.3294 C.3     1  UNL1        0.0199
      3 C         142.8493  139.1622  166.6616 C.3     1  UNL1        0.0060
      4 C         142.7138  140.6158  167.0064 C.3     1  UNL1        0.0224
      5 C         143.1353  141.6633  166.0190 C.3     1  UNL1        0.0060
      6 C         143.6924  141.2573  164.6867 C.3     1  UNL1        0.0199
      7 C         142.1568  141.0218  168.3386 C.ar    1  UNL1       -0.0223
      8 C         141.2153  140.1094  169.0675 C.ar    1  UNL1       -0.0012
      9 C         140.6583  140.5154  170.3998 C.ar    1  UNL1        0.0363
     10 C         141.0427  141.8338  171.0031 C.ar    1  UNL1        0.1337
     11 O         140.4856  142.2398  172.3354 O.3     1  UNL1       -0.5055
     12 C         141.9840  142.7462  170.2743 C.ar    1  UNL1        0.0363
     13 C         142.5411  142.3402  168.9420 C.ar    1  UNL1       -0.0012
     14 H         139.8975  141.6698  172.7907 H       1  UNL1        0.2922
     15 O         141.9744  139.0206  162.1169 O.2     1  UNL1       -0.2751
     16 C         143.4582  139.0062  161.8972 C.2     1  UNL1        0.2228
     17 N         144.3849  139.3978  163.0097 N.am    1  UNL1       -0.3060
     18 H         145.3588  139.3883  162.8655 H       1  UNL1        0.1494
     19 C         144.0152  138.6001  160.5649 C.3     1  UNL1        0.0898
     20 C         143.5386  139.2780  159.3146 C.3     1  UNL1        0.0375
     21 C         142.4051  138.6895  158.5278 C.ar    1  UNL1       -0.0025
     22 C         141.0109  139.2092  158.7175 C.ar    1  UNL1       -0.0011
     23 C         139.8776  138.6207  157.9307 C.ar    1  UNL1        0.0204
     24 C         140.1384  137.5124  156.9542 C.ar    1  UNL1        0.0989
     25 N         141.5326  136.9926  156.7644 N.ar    1  UNL1       -0.2426
     26 C         142.6659  137.5812  157.5512 C.ar    1  UNL1        0.0946
@<TRIPOS>BOND
     1    15    16    2
     2    16    19    1
     3    19    20    1
     4    20    21    1
     5    21    22   ar
     6    22    23   ar
     7    23    24   ar
     8    24    25   ar
     9    25    26   ar
    10    16    17   am
    11     1    17    1
    12     1     2    1
    13     2     3    1
    14     3     4    1
    15     4     7    1
    16     7     8   ar
    17     8     9   ar
    18     9    10   ar
    19    10    11    1
    20    10    12   ar
    21    12    13   ar
    22     4     5    1
    23     5     6    1
    24    26    21   ar
    25     6     1    1
    26    13     7   ar
    27    17    18    1
    28    11    14    1
@<TRIPOS>MOLECULE
*****
 26 28 0 0 0
SMALL
GASTEIGER

@<TRIPOS>ATOM
      1 C         142.0579  138.3021  164.3194 C.3     1  UNL1        0.0716
      2 C         140.7025  138.8690  164.6222 C.3     1  UNL1        0.0199
      3 C         140.4387  139.5128  165.9511 C.3     1  UNL1        0.0060
      4 C         141.5302  139.5898  166.9771 C.3     1  UNL1        0.0224
      5 C         142.8855  139.0228  166.6743 C.3     1  UNL1        0.0060
      6 C         143.1494  138.3790  165.3454 C.3     1  UNL1        0.0199
      7 C         141.2664  140.2336  168.3059 C.ar    1  UNL1       -0.0223
      8 C         142.4048  140.5195  169.2400 C.ar    1  UNL1       -0.0012
      9 C         142.1410  141.1633  170.5689 C.ar    1  UNL1        0.0363
     10 C         140.7388  141.5213  170.9637 C.ar    1  UNL1        0.1337
     11 O         140.4751  142.1651  172.2926 O.3     1  UNL1       -0.5055
     12 C         139.6005  141.2354  170.0297 C.ar    1  UNL1        0.0363
     13 C         139.8643  140.5916  168.7007 C.ar    1  UNL1       -0.0012
     14 H         141.1862  142.3437  172.8761 H       1  UNL1        0.2922
     15 O         143.5493  139.8050  162.1942 O.2     1  UNL1       -0.2751
     16 C         143.0674  138.4097  161.9279 C.2     1  UNL1        0.2228
     17 N         142.3217  137.6582  162.9905 N.am    1  UNL1       -0.3060
     18 H         142.0054  136.7424  162.8158 H       1  UNL1        0.1494
     19 C         143.3312  137.7659  160.5990 C.3     1  UNL1        0.0898
     20 C         142.3749  137.9731  159.4622 C.3     1  UNL1        0.0375
     21 C         141.2452  138.9502  159.6010 C.ar    1  UNL1       -0.0025
     22 C         141.4689  140.4028  159.3011 C.ar    1  UNL1       -0.0011
     23 C         140.3392  141.3798  159.4399 C.ar    1  UNL1        0.0204
     24 C         138.9859  140.9042  159.8786 C.ar    1  UNL1        0.0989
     25 N         138.7623  139.4516  160.1784 N.ar    1  UNL1       -0.2426
     26 C         139.8919  138.4746  160.0396 C.ar    1  UNL1        0.0946
@<TRIPOS>BOND
     1    15    16    2
     2    16    19    1
     3    19    20    1
     4    20    21    1
     5    21    22   ar
     6    22    23   ar
     7    23    24   ar
     8    24    25   ar
     9    25    26   ar
    10    16    17   am
    11     1    17    1
    12     1     2    1
    13     2     3    1
    14     3     4    1
    15     4     7    1
    16     7     8   ar
    17     8     9   ar
    18     9    10   ar
    19    10    11    1
    20    10    12   ar
    21    12    13   ar
    22     4     5    1
    23     5     6    1
    24    26    21   ar
    25     6     1    1
    26    13     7   ar
    27    17    18    1
    28    11    14    1
@<TRIPOS>MOLECULE
*****
 26 28 0 0 0
SMALL
GASTEIGER

@<TRIPOS>ATOM
      1 C         142.6775  139.5689  163.2348 C.3     1  UNL1        0.0716
      2 C         143.5831  138.9966  164.2849 C.3     1  UNL1        0.0199
      3 C         143.2129  139.1047  165.7344 C.3     1  UNL1        0.0060
      4 C         141.9372  139.7850  166.1341 C.3     1  UNL1        0.0224
      5 C         141.0317  140.3572  165.0841 C.3     1  UNL1        0.0060
      6 C         141.4018  140.2492  163.6345 C.3     1  UNL1        0.0199
      7 C         141.5671  139.8930  167.5836 C.ar    1  UNL1       -0.0223
      8 C         140.2213  140.4267  167.9763 C.ar    1  UNL1       -0.0012
      9 C         139.8511  140.5347  169.4259 C.ar    1  UNL1        0.0363
     10 C         140.8267  140.1091  170.4828 C.ar    1  UNL1        0.1337
     11 O         140.4565  140.2172  171.9324 O.3     1  UNL1       -0.5055
     12 C         142.1724  139.5755  170.0902 C.ar    1  UNL1        0.0363
     13 C         142.5426  139.4674  168.6406 C.ar    1  UNL1       -0.0012
     14 H         139.6159  140.5505  172.1777 H       1  UNL1        0.2922
     15 O         141.4832  137.4013  161.5394 O.2     1  UNL1       -0.2751
     16 C         142.4505  138.3771  160.9376 C.2     1  UNL1        0.2228
     17 N         143.0476  139.4609  161.7853 N.am    1  UNL1       -0.3060
     18 H         143.6825  140.1013  161.3903 H       1  UNL1        0.1494
     19 C         142.8206  138.2690  159.4879 C.3     1  UNL1        0.0898
     20 C         141.7685  138.4306  158.4311 C.3     1  UNL1        0.0375
     21 C         141.6253  137.3992  157.3514 C.ar    1  UNL1       -0.0025
     22 C         142.7149  136.3934  157.1257 C.ar    1  UNL1       -0.0011
     23 C         142.5716  135.3621  156.0460 C.ar    1  UNL1        0.0204
     24 C         141.3387  135.3365  155.1920 C.ar    1  UNL1        0.0989
     25 N         140.2491  136.3423  155.4177 N.ar    1  UNL1       -0.2426
     26 C         140.3924  137.3737  156.4974 C.ar    1  UNL1        0.0946
@<TRIPOS>BOND
     1    15    16    2
     2    16    19    1
     3    19    20    1
     4    20    21    1
     5    21    22   ar
     6    22    23   ar
     7    23    24   ar
     8    24    25   ar
     9    25    26   ar
    10    16    17   am
    11     1    17    1
    12     1     2    1
    13     2     3    1
    14     3     4    1
    15     4     7    1
    16     7     8   ar
    17     8     9   ar
    18     9    10   ar
    19    10    11    1
    20    10    12   ar
    21    12    13   ar
    22     4     5    1
    23     5     6    1
    24    26    21   ar
    25     6     1    1
    26    13     7   ar
    27    17    18    1
    28    11    14    1
@<TRIPOS>MOLECULE
*****
 26 28 0 0 0
SMALL
GASTEIGER

@<TRIPOS>ATOM
      1 C         139.3233  139.9411  163.5624 C.3     1  UNL1        0.0716
      2 C         140.3408  140.9880  163.9074 C.3     1  UNL1        0.0199
      3 C         140.5653  141.3723  165.3398 C.3     1  UNL1        0.0060
      4 C         139.7725  140.7099  166.4273 C.3     1  UNL1        0.0224
      5 C         138.7551  139.6631  166.0824 C.3     1  UNL1        0.0060
      6 C         138.5305  139.2787  164.6499 C.3     1  UNL1        0.0199
      7 C         139.9971  141.0943  167.8597 C.ar    1  UNL1       -0.0223
      8 C         139.6960  140.1148  168.9551 C.ar    1  UNL1       -0.0012
      9 C         139.9206  140.4991  170.3875 C.ar    1  UNL1        0.0363
     10 C         140.4462  141.8630  170.7245 C.ar    1  UNL1        0.1337
     11 O         140.6708  142.2474  172.1570 O.3     1  UNL1       -0.5055
     12 C         140.7473  142.8425  169.6291 C.ar    1  UNL1        0.0363
     13 C         140.5227  142.4581  168.1967 C.ar    1  UNL1       -0.0012
     14 H         140.4827  141.6355  172.8413 H       1  UNL1        0.2922
     15 O         137.3235  141.4401  161.9031 O.2     1  UNL1       -0.2751
     16 C         138.0988  140.3062  161.3004 C.2     1  UNL1        0.2228
     17 N         139.0987  139.5567  162.1301 N.am    1  UNL1       -0.3060
     18 H         139.6076  138.8125  161.7345 H       1  UNL1        0.1494
     19 C         137.8742  139.9219  159.8679 C.3     1  UNL1        0.0898
     20 C         138.8616  140.3347  158.8169 C.3     1  UNL1        0.0375
     21 C         139.9749  139.4075  158.4282 C.ar    1  UNL1       -0.0025
     22 C         139.7841  138.4383  157.2994 C.ar    1  UNL1       -0.0011
     23 C         140.8973  137.5112  156.9107 C.ar    1  UNL1        0.0204
     24 C         142.2013  137.5532  157.6509 C.ar    1  UNL1        0.0989
     25 N         142.3921  138.5224  158.7797 N.ar    1  UNL1       -0.2426
     26 C         141.2789  139.4495  159.1684 C.ar    1  UNL1        0.0946
@<TRIPOS>BOND
     1    15    16    2
     2    16    19    1
     3    19    20    1
     4    20    21    1
     5    21    22   ar
     6    22    23   ar
     7    23    24   ar
     8    24    25   ar
     9    25    26   ar
    10    16    17   am
    11     1    17    1
    12     1     2    1
    13     2     3    1
    14     3     4    1
    15     4     7    1
    16     7     8   ar
    17     8     9   ar
    18     9    10   ar
    19    10    11    1
    20    10    12   ar
    21    12    13   ar
    22     4     5    1
    23     5     6    1
    24    26    21   ar
    25     6     1    1
    26    13     7   ar
    27    17    18    1
    28    11    14    1
