@<TRIPOS>MOLECULE
*****
 33 36 0 0 0
SMALL
GASTEIGER

@<TRIPOS>ATOM
      1 N         140.6648  141.4158  168.5191 N.ar    1  UNL1       -0.2394
      2 N         141.3159  142.1947  167.4148 N.ar    1  UNL1       -0.1680
      3 C         140.6794  141.7839  166.1201 C.ar    1  UNL1        0.1094
      4 C         139.6350  140.7512  166.4242 C.ar    1  UNL1        0.1032
      5 C         139.6259  140.5236  167.9068 C.ar    1  UNL1        0.1280
      6 N         138.7344  139.5712  168.6472 N.pl3   1  UNL1       -0.3427
      7 H         138.0801  139.0251  168.1542 H       1  UNL1        0.1437
      8 H         138.8036  139.4921  169.6260 H       1  UNL1        0.1437
      9 C         141.0266  142.3130  164.7601 C.ar    1  UNL1        0.0387
     10 C         142.0821  141.6345  163.9383 C.ar    1  UNL1        0.1003
     11 N         142.4292  142.1636  162.5783 N.ar    1  UNL1       -0.2437
     12 C         141.7208  143.3714  162.0402 C.ar    1  UNL1        0.0843
     13 C         142.0679  143.9005  160.6802 C.ar    1  UNL1        0.0560
     14 C         141.3595  145.1082  160.1421 C.ar    1  UNL1        0.1399
     15 C         140.3040  145.7868  160.9640 C.ar    1  UNL1        0.0370
     16 C         139.9569  145.2576  162.3239 C.ar    1  UNL1        0.0046
     17 C         140.6653  144.0499  162.8620 C.ar    1  UNL1        0.0179
     18 C         140.3182  143.5208  164.2220 C.ar    1  UNL1        0.0046
     19 O         141.7066  145.6374  158.7821 O.3     1  UNL1       -0.4791
     20 C         140.6474  145.7415  157.7250 C.3     1  UNL1        0.1661
     21 C         139.7850  145.0946  156.6821 C.3     1  UNL1        0.0472
     22 C         139.6754  146.5686  156.9372 C.3     1  UNL1        0.0472
     23 C         138.7542  140.0662  165.4217 C.2     1  UNL1        0.2470
     24 N         137.7169  140.8508  164.6746 N.am    1  UNL1       -0.3252
     25 O         138.9109  138.5963  165.1662 O.2     1  UNL1       -0.2702
     26 H         137.6140  141.8155  164.8422 H       1  UNL1        0.1453
     27 H         137.1388  140.4011  164.0166 H       1  UNL1        0.1453
     28 C         142.0236  140.4327  169.8180 C.3     1  UNL1        0.0270
     29 C         140.9946  141.5121  169.9792 C.3     1  UNL1        0.1147
     30 C         139.9656  142.5915  170.1404 C.3     1  UNL1        0.0270
     31 C         141.3244  141.6084  171.4393 C.3     1  UNL1        0.1594
     32 O         142.2824  140.6339  172.0576 O.3     1  UNL1       -0.3800
     33 H         141.8969  139.7440  172.0366 H       1  UNL1        0.2105
@<TRIPOS>BOND
     1    28    29    1
     2    29    30    1
     3    29    31    1
     4    31    32    1
     5    29     1    1
     6     1     2   ar
     7     2     3   ar
     8     3     9    1
     9     9    10   ar
    10    10    11   ar
    11    11    12   ar
    12    12    13   ar
    13    13    14   ar
    14    14    19    1
    15    19    20    1
    16    20    21    1
    17    21    22    1
    18    14    15   ar
    19    15    16   ar
    20    16    17   ar
    21    17    18   ar
    22     3     4   ar
    23     4    23    1
    24    23    24   am
    25    23    25    2
    26     4     5   ar
    27     5     6    1
    28     5     1   ar
    29    18     9   ar
    30    17    12   ar
    31    22    20    1
    32    32    33    1
    33    24    26    1
    34    24    27    1
    35     6     7    1
    36     6     8    1
@<TRIPOS>MOLECULE
*****
 33 36 0 0 0
SMALL
GASTEIGER

@<TRIPOS>ATOM
      1 N         140.6471  141.6113  168.0882 N.ar    1  UNL1       -0.2394
      2 N         140.4748  141.9260  166.6317 N.ar    1  UNL1       -0.1680
      3 C         139.5608  140.8945  166.0396 C.ar    1  UNL1        0.1094
      4 C         139.1682  139.9423  167.1301 C.ar    1  UNL1        0.1032
      5 C         139.8395  140.3853  168.3962 C.ar    1  UNL1        0.1280
      6 N         139.7237  139.7193  169.7352 N.pl3   1  UNL1       -0.3427
      7 H         139.1662  138.9145  169.8381 H       1  UNL1        0.1437
      8 H         140.2053  140.0871  170.5112 H       1  UNL1        0.1437
      9 C         139.1172  140.8270  164.6082 C.ar    1  UNL1        0.0387
     10 C         137.8255  141.4661  164.1924 C.ar    1  UNL1        0.1003
     11 N         137.3820  141.3986  162.7611 N.ar    1  UNL1       -0.2437
     12 C         138.2302  140.6921  161.7456 C.ar    1  UNL1        0.0843
     13 C         137.7867  140.6246  160.3142 C.ar    1  UNL1        0.0560
     14 C         138.6349  139.9181  159.2987 C.ar    1  UNL1        0.1399
     15 C         139.9267  139.2790  159.7145 C.ar    1  UNL1        0.0370
     16 C         140.3702  139.3465  161.1459 C.ar    1  UNL1        0.0046
     17 C         139.5220  140.0530  162.1614 C.ar    1  UNL1        0.0179
     18 C         139.9655  140.1205  163.5927 C.ar    1  UNL1        0.0046
     19 O         138.1914  139.8506  157.8674 O.3     1  UNL1       -0.4791
     20 C         137.5617  141.0483  157.2200 C.3     1  UNL1        0.1661
     21 C         136.6074  141.6341  156.2219 C.3     1  UNL1        0.0472
     22 C         137.4254  142.5370  157.0969 C.3     1  UNL1        0.0472
     23 C         138.2631  138.7555  166.9808 C.2     1  UNL1        0.2470
     24 N         138.3689  137.8794  165.7680 N.am    1  UNL1       -0.3252
     25 O         137.2521  138.4449  168.0446 O.2     1  UNL1       -0.2702
     26 H         139.0324  138.0833  165.0698 H       1  UNL1        0.1453
     27 H         137.7748  137.1005  165.6700 H       1  UNL1        0.1453
     28 C         142.6378  141.4677  168.8068 C.3     1  UNL1        0.0270
     29 C         141.4807  142.3865  169.0650 C.3     1  UNL1        0.1147
     30 C         140.3235  143.3053  169.3233 C.3     1  UNL1        0.0270
     31 C         142.3142  143.1617  170.0419 C.3     1  UNL1        0.1594
     32 O         142.4680  142.6715  171.4512 O.3     1  UNL1       -0.3800
     33 H         141.6104  142.7107  171.9026 H       1  UNL1        0.2105
@<TRIPOS>BOND
     1    28    29    1
     2    29    30    1
     3    29    31    1
     4    31    32    1
     5    29     1    1
     6     1     2   ar
     7     2     3   ar
     8     3     9    1
     9     9    10   ar
    10    10    11   ar
    11    11    12   ar
    12    12    13   ar
    13    13    14   ar
    14    14    19    1
    15    19    20    1
    16    20    21    1
    17    21    22    1
    18    14    15   ar
    19    15    16   ar
    20    16    17   ar
    21    17    18   ar
    22     3     4   ar
    23     4    23    1
    24    23    24   am
    25    23    25    2
    26     4     5   ar
    27     5     6    1
    28     5     1   ar
    29    18     9   ar
    30    17    12   ar
    31    22    20    1
    32    32    33    1
    33    24    26    1
    34    24    27    1
    35     6     7    1
    36     6     8    1
@<TRIPOS>MOLECULE
*****
 33 36 0 0 0
SMALL
GASTEIGER

@<TRIPOS>ATOM
      1 N         141.7824  139.8999  168.1232 N.ar    1  UNL1       -0.2394
      2 N         142.4662  139.5980  166.8227 N.ar    1  UNL1       -0.1680
      3 C         141.4091  139.2948  165.8026 C.ar    1  UNL1        0.1094
      4 C         140.0719  139.4093  166.4727 C.ar    1  UNL1        0.1032
      5 C         140.3026  139.7833  167.9068 C.ar    1  UNL1        0.1280
      6 N         139.2402  140.0022  168.9428 N.pl3   1  UNL1       -0.3427
      7 H         138.2906  139.9017  168.7030 H       1  UNL1        0.1437
      8 H         139.4923  140.2464  169.8626 H       1  UNL1        0.1437
      9 C         141.6473  138.9394  164.3649 C.ar    1  UNL1        0.0387
     10 C         141.1462  137.6340  163.8220 C.ar    1  UNL1        0.1003
     11 N         141.3844  137.2787  162.3843 N.ar    1  UNL1       -0.2437
     12 C         142.1238  138.2289  161.4895 C.ar    1  UNL1        0.0843
     13 C         142.3620  137.8735  160.0518 C.ar    1  UNL1        0.0560
     14 C         143.1014  138.8236  159.1570 C.ar    1  UNL1        0.1399
     15 C         143.6025  140.1291  159.6999 C.ar    1  UNL1        0.0370
     16 C         143.3642  140.4844  161.1376 C.ar    1  UNL1        0.0046
     17 C         142.6249  139.5343  162.0324 C.ar    1  UNL1        0.0179
     18 C         142.3866  139.8895  163.4701 C.ar    1  UNL1        0.0046
     19 O         143.3396  138.4684  157.7193 O.3     1  UNL1       -0.4791
     20 C         142.7204  137.2310  157.1399 C.3     1  UNL1        0.1661
     21 C         141.5700  136.5509  156.4587 C.3     1  UNL1        0.0472
     22 C         142.7982  135.7682  156.8177 C.3     1  UNL1        0.0472
     23 C         138.7382  139.1886  165.8227 C.2     1  UNL1        0.2470
     24 N         138.0378  140.3271  165.1422 N.am    1  UNL1       -0.3252
     25 O         138.1049  137.8291  165.8531 O.2     1  UNL1       -0.2702
     26 H         138.4535  141.2194  165.1222 H       1  UNL1        0.1453
     27 H         137.1625  140.1822  164.7156 H       1  UNL1        0.1453
     28 C         142.4737  138.8081  169.8055 C.3     1  UNL1        0.0270
     29 C         142.4595  140.2559  169.4135 C.3     1  UNL1        0.1147
     30 C         142.4452  141.7037  169.0215 C.3     1  UNL1        0.0270
     31 C         143.1365  140.6119  170.7038 C.3     1  UNL1        0.1594
     32 O         143.8987  139.5673  171.4639 O.3     1  UNL1       -0.3800
     33 H         143.2846  138.8884  171.7847 H       1  UNL1        0.2105
@<TRIPOS>BOND
     1    28    29    1
     2    29    30    1
     3    29    31    1
     4    31    32    1
     5    29     1    1
     6     1     2   ar
     7     2     3   ar
     8     3     9    1
     9     9    10   ar
    10    10    11   ar
    11    11    12   ar
    12    12    13   ar
    13    13    14   ar
    14    14    19    1
    15    19    20    1
    16    20    21    1
    17    21    22    1
    18    14    15   ar
    19    15    16   ar
    20    16    17   ar
    21    17    18   ar
    22     3     4   ar
    23     4    23    1
    24    23    24   am
    25    23    25    2
    26     4     5   ar
    27     5     6    1
    28     5     1   ar
    29    18     9   ar
    30    17    12   ar
    31    22    20    1
    32    32    33    1
    33    24    26    1
    34    24    27    1
    35     6     7    1
    36     6     8    1
@<TRIPOS>MOLECULE
*****
 33 36 0 0 0
SMALL
GASTEIGER

@<TRIPOS>ATOM
      1 N         140.6776  140.9018  168.2701 N.ar    1  UNL1       -0.2394
      2 N         139.9450  140.7207  166.9738 N.ar    1  UNL1       -0.1680
      3 C         140.7993  139.8798  166.0720 C.ar    1  UNL1        0.1094
      4 C         142.0599  139.5412  166.8111 C.ar    1  UNL1        0.1032
      5 C         141.9848  140.1728  168.1695 C.ar    1  UNL1        0.1280
      6 N         143.0327  140.0900  169.2396 N.pl3   1  UNL1       -0.3427
      7 H         143.8622  139.5849  169.0782 H       1  UNL1        0.1437
      8 H         142.8910  140.5408  170.1033 H       1  UNL1        0.1437
      9 C         140.4536  139.4525  164.6763 C.ar    1  UNL1        0.0387
     10 C         139.9475  138.0639  164.4207 C.ar    1  UNL1        0.1003
     11 N         139.6018  137.6367  163.0250 N.ar    1  UNL1       -0.2437
     12 C         139.7623  138.5981  161.8849 C.ar    1  UNL1        0.0843
     13 C         139.4167  138.1709  160.4892 C.ar    1  UNL1        0.0560
     14 C         139.5772  139.1323  159.3491 C.ar    1  UNL1        0.1399
     15 C         140.0834  140.5210  159.6047 C.ar    1  UNL1        0.0370
     16 C         140.4291  140.9482  161.0004 C.ar    1  UNL1        0.0046
     17 C         140.2685  139.9868  162.1405 C.ar    1  UNL1        0.0179
     18 C         140.6142  140.4140  163.5362 C.ar    1  UNL1        0.0046
     19 O         139.2316  138.7051  157.9534 O.3     1  UNL1       -0.4791
     20 C         138.9582  139.7367  156.8993 C.3     1  UNL1        0.1661
     21 C         137.9849  140.5609  156.1096 C.3     1  UNL1        0.0472
     22 C         139.4580  140.6993  155.8632 C.3     1  UNL1        0.0472
     23 C         143.1963  138.7159  166.2842 C.2     1  UNL1        0.2470
     24 N         143.5614  138.7831  164.8309 N.am    1  UNL1       -0.3252
     25 O         143.9676  137.8233  167.2107 O.2     1  UNL1       -0.2702
     26 H         143.0552  139.3690  164.2228 H       1  UNL1        0.1453
     27 H         144.3072  138.2414  164.4852 H       1  UNL1        0.1453
     28 C         139.5048  140.4463  169.9780 C.3     1  UNL1        0.0270
     29 C         140.1890  141.6759  169.4583 C.3     1  UNL1        0.1147
     30 C         140.8731  142.9054  168.9386 C.3     1  UNL1        0.0270
     31 C         139.7003  142.4500  170.6466 C.3     1  UNL1        0.1594
     32 O         140.3540  142.2635  171.9837 O.3     1  UNL1       -0.3800
     33 H         140.1916  141.3610  172.2999 H       1  UNL1        0.2105
@<TRIPOS>BOND
     1    28    29    1
     2    29    30    1
     3    29    31    1
     4    31    32    1
     5    29     1    1
     6     1     2   ar
     7     2     3   ar
     8     3     9    1
     9     9    10   ar
    10    10    11   ar
    11    11    12   ar
    12    12    13   ar
    13    13    14   ar
    14    14    19    1
    15    19    20    1
    16    20    21    1
    17    21    22    1
    18    14    15   ar
    19    15    16   ar
    20    16    17   ar
    21    17    18   ar
    22     3     4   ar
    23     4    23    1
    24    23    24   am
    25    23    25    2
    26     4     5   ar
    27     5     6    1
    28     5     1   ar
    29    18     9   ar
    30    17    12   ar
    31    22    20    1
    32    32    33    1
    33    24    26    1
    34    24    27    1
    35     6     7    1
    36     6     8    1
@<TRIPOS>MOLECULE
*****
 33 36 0 0 0
SMALL
GASTEIGER

@<TRIPOS>ATOM
      1 N         141.1082  140.9142  168.4180 N.ar    1  UNL1       -0.2394
      2 N         141.8611  141.1335  167.1393 N.ar    1  UNL1       -0.1680
      3 C         141.0378  140.5774  166.0155 C.ar    1  UNL1        0.1094
      4 C         139.7761  140.0144  166.5996 C.ar    1  UNL1        0.1032
      5 C         139.8196  140.2225  168.0845 C.ar    1  UNL1        0.1280
      6 N         138.7605  139.8112  169.0638 N.pl3   1  UNL1       -0.3427
      7 H         137.9450  139.3601  168.7464 H       1  UNL1        0.1437
      8 H         138.8809  139.9923  170.0240 H       1  UNL1        0.1437
      9 C         141.4108  140.5833  164.5625 C.ar    1  UNL1        0.0387
     10 C         140.8061  141.5972  163.6371 C.ar    1  UNL1        0.1003
     11 N         141.1791  141.6031  162.1843 N.ar    1  UNL1       -0.2437
     12 C         142.1567  140.5951  161.6568 C.ar    1  UNL1        0.0843
     13 C         142.5297  140.6010  160.2039 C.ar    1  UNL1        0.0560
     14 C         143.5072  139.5930  159.6765 C.ar    1  UNL1        0.1399
     15 C         144.1119  138.5790  160.6019 C.ar    1  UNL1        0.0370
     16 C         143.7389  138.5732  162.0548 C.ar    1  UNL1        0.0046
     17 C         142.7613  139.5812  162.5822 C.ar    1  UNL1        0.0179
     18 C         142.3883  139.5753  164.0351 C.ar    1  UNL1        0.0046
     19 O         143.8802  139.5988  158.2236 O.3     1  UNL1       -0.4791
     20 C         144.5744  140.7899  157.6323 C.3     1  UNL1        0.1661
     21 C         145.6037  141.3659  156.7055 C.3     1  UNL1        0.0472
     22 C         144.7476  142.2766  157.5349 C.3     1  UNL1        0.0472
     23 C         138.6659  139.3584  165.8335 C.2     1  UNL1        0.2470
     24 N         137.7672  140.1835  164.9608 N.am    1  UNL1       -0.3252
     25 O         138.4543  137.8772  165.9400 O.2     1  UNL1       -0.2702
     26 H         137.9060  141.1556  164.8909 H       1  UNL1        0.1453
     27 H         137.0385  139.7529  164.4580 H       1  UNL1        0.1453
     28 C         142.2931  140.0126  169.9290 C.3     1  UNL1        0.0270
     29 C         141.5639  141.3160  169.7895 C.3     1  UNL1        0.1147
     30 C         140.8347  142.6193  169.6500 C.3     1  UNL1        0.0270
     31 C         142.0196  141.7177  171.1609 C.3     1  UNL1        0.1594
     32 O         142.1921  140.6781  172.2284 O.3     1  UNL1       -0.3800
     33 H         141.3286  140.2957  172.4498 H       1  UNL1        0.2105
@<TRIPOS>BOND
     1    28    29    1
     2    29    30    1
     3    29    31    1
     4    31    32    1
     5    29     1    1
     6     1     2   ar
     7     2     3   ar
     8     3     9    1
     9     9    10   ar
    10    10    11   ar
    11    11    12   ar
    12    12    13   ar
    13    13    14   ar
    14    14    19    1
    15    19    20    1
    16    20    21    1
    17    21    22    1
    18    14    15   ar
    19    15    16   ar
    20    16    17   ar
    21    17    18   ar
    22     3     4   ar
    23     4    23    1
    24    23    24   am
    25    23    25    2
    26     4     5   ar
    27     5     6    1
    28     5     1   ar
    29    18     9   ar
    30    17    12   ar
    31    22    20    1
    32    32    33    1
    33    24    26    1
    34    24    27    1
    35     6     7    1
    36     6     8    1
@<TRIPOS>MOLECULE
*****
 33 36 0 0 0
SMALL
GASTEIGER

@<TRIPOS>ATOM
      1 N         141.0734  142.2942  168.0742 N.ar    1  UNL1       -0.2394
      2 N         140.3324  142.2907  166.7700 N.ar    1  UNL1       -0.1680
      3 C         141.3327  142.4770  165.6679 C.ar    1  UNL1        0.1094
      4 C         142.6920  142.5957  166.2909 C.ar    1  UNL1        0.1032
      5 C         142.5318  142.4827  167.7781 C.ar    1  UNL1        0.1280
      6 N         143.6361  142.5470  168.7912 N.pl3   1  UNL1       -0.3427
      7 H         144.5671  142.6740  168.4973 H       1  UNL1        0.1437
      8 H         143.4299  142.4622  169.7501 H       1  UNL1        0.1437
      9 C         141.0273  142.5345  164.2004 C.ar    1  UNL1        0.0387
     10 C         140.7707  141.2688  163.4376 C.ar    1  UNL1        0.1003
     11 N         140.4653  141.3264  161.9702 N.ar    1  UNL1       -0.2437
     12 C         140.4166  142.6497  161.2656 C.ar    1  UNL1        0.0843
     13 C         140.1111  142.7072  159.7981 C.ar    1  UNL1        0.0560
     14 C         140.0624  144.0306  159.0935 C.ar    1  UNL1        0.1399
     15 C         140.3190  145.2963  159.8564 C.ar    1  UNL1        0.0370
     16 C         140.6244  145.2388  161.3238 C.ar    1  UNL1        0.0046
     17 C         140.6732  143.9154  162.0284 C.ar    1  UNL1        0.0179
     18 C         140.9786  143.8579  163.4958 C.ar    1  UNL1        0.0046
     19 O         139.7570  144.0881  157.6261 O.3     1  UNL1       -0.4791
     20 C         140.0021  145.3531  156.8580 C.3     1  UNL1        0.1661
     21 C         140.9471  146.2912  156.1674 C.3     1  UNL1        0.0472
     22 C         139.4815  146.6061  156.2185 C.3     1  UNL1        0.0472
     23 C         143.9847  142.7927  165.5559 C.2     1  UNL1        0.2470
     24 N         144.3546  141.8739  164.4295 N.am    1  UNL1       -0.3252
     25 O         144.9074  143.9087  165.9474 O.2     1  UNL1       -0.2702
     26 H         143.7491  141.1415  164.1726 H       1  UNL1        0.1453
     27 H         145.2031  142.0033  163.9471 H       1  UNL1        0.1453
     28 C         140.5197  140.6452  169.2883 C.3     1  UNL1        0.0270
     29 C         140.4633  142.1369  169.4354 C.3     1  UNL1        0.1147
     30 C         140.4068  143.6286  169.5825 C.3     1  UNL1        0.0270
     31 C         139.8531  141.9795  170.7966 C.3     1  UNL1        0.1594
     32 O         140.7048  142.1299  172.0222 O.3     1  UNL1       -0.3800
     33 H         141.3570  141.4126  172.0527 H       1  UNL1        0.2105
@<TRIPOS>BOND
     1    28    29    1
     2    29    30    1
     3    29    31    1
     4    31    32    1
     5    29     1    1
     6     1     2   ar
     7     2     3   ar
     8     3     9    1
     9     9    10   ar
    10    10    11   ar
    11    11    12   ar
    12    12    13   ar
    13    13    14   ar
    14    14    19    1
    15    19    20    1
    16    20    21    1
    17    21    22    1
    18    14    15   ar
    19    15    16   ar
    20    16    17   ar
    21    17    18   ar
    22     3     4   ar
    23     4    23    1
    24    23    24   am
    25    23    25    2
    26     4     5   ar
    27     5     6    1
    28     5     1   ar
    29    18     9   ar
    30    17    12   ar
    31    22    20    1
    32    32    33    1
    33    24    26    1
    34    24    27    1
    35     6     7    1
    36     6     8    1
@<TRIPOS>MOLECULE
*****
 33 36 0 0 0
SMALL
GASTEIGER

@<TRIPOS>ATOM
      1 N         142.7215  141.7889  168.1296 N.ar    1  UNL1       -0.2394
      2 N         143.0222  142.4708  166.8278 N.ar    1  UNL1       -0.1680
      3 C         143.3521  141.4135  165.8161 C.ar    1  UNL1        0.1094
      4 C         143.2552  140.0783  166.4926 C.ar    1  UNL1        0.1032
      5 C         142.8655  140.3102  167.9224 C.ar    1  UNL1        0.1280
      6 N         142.6565  139.2497  168.9624 N.pl3   1  UNL1       -0.3427
      7 H         142.7754  138.3008  168.7287 H       1  UNL1        0.1437
      8 H         142.4004  139.5027  169.8788 H       1  UNL1        0.1437
      9 C         143.7151  141.6501  164.3800 C.ar    1  UNL1        0.0387
     10 C         145.1380  141.4966  163.9310 C.ar    1  UNL1        0.1003
     11 N         145.5009  141.7331  162.4949 N.ar    1  UNL1       -0.2437
     12 C         144.4409  142.1232  161.5079 C.ar    1  UNL1        0.0843
     13 C         144.8039  142.3598  160.0718 C.ar    1  UNL1        0.0560
     14 C         143.7439  142.7499  159.0847 C.ar    1  UNL1        0.1399
     15 C         142.3209  142.9034  159.5338 C.ar    1  UNL1        0.0370
     16 C         141.9580  142.6669  160.9699 C.ar    1  UNL1        0.0046
     17 C         143.0180  142.2768  161.9569 C.ar    1  UNL1        0.0179
     18 C         142.6551  142.0402  163.3929 C.ar    1  UNL1        0.0046
     19 O         144.1068  142.9865  157.6487 O.3     1  UNL1       -0.4791
     20 C         144.4236  141.8249  156.7540 C.3     1  UNL1        0.1661
     21 C         144.0992  140.9807  155.5572 C.3     1  UNL1        0.0472
     22 C         145.2965  140.6572  156.4010 C.3     1  UNL1        0.0472
     23 C         143.5044  138.7451  165.8519 C.2     1  UNL1        0.2470
     24 N         142.9264  138.4422  164.5013 N.am    1  UNL1       -0.3252
     25 O         144.3316  137.7147  166.5619 O.2     1  UNL1       -0.2702
     26 H         142.3835  139.1185  164.0353 H       1  UNL1        0.1453
     27 H         143.0900  137.5672  164.0808 H       1  UNL1        0.1453
     28 C         143.7731  142.4128  169.8630 C.3     1  UNL1        0.0270
     29 C         142.3432  142.4667  169.4131 C.3     1  UNL1        0.1147
     30 C         140.9132  142.5205  168.9632 C.3     1  UNL1        0.0270
     31 C         141.9648  143.1444  170.6966 C.3     1  UNL1        0.1594
     32 O         142.1657  142.4387  172.0049 O.3     1  UNL1       -0.3800
     33 H         141.5791  141.6674  172.0496 H       1  UNL1        0.2105
@<TRIPOS>BOND
     1    28    29    1
     2    29    30    1
     3    29    31    1
     4    31    32    1
     5    29     1    1
     6     1     2   ar
     7     2     3   ar
     8     3     9    1
     9     9    10   ar
    10    10    11   ar
    11    11    12   ar
    12    12    13   ar
    13    13    14   ar
    14    14    19    1
    15    19    20    1
    16    20    21    1
    17    21    22    1
    18    14    15   ar
    19    15    16   ar
    20    16    17   ar
    21    17    18   ar
    22     3     4   ar
    23     4    23    1
    24    23    24   am
    25    23    25    2
    26     4     5   ar
    27     5     6    1
    28     5     1   ar
    29    18     9   ar
    30    17    12   ar
    31    22    20    1
    32    32    33    1
    33    24    26    1
    34    24    27    1
    35     6     7    1
    36     6     8    1
@<TRIPOS>MOLECULE
*****
 33 36 0 0 0
SMALL
GASTEIGER

@<TRIPOS>ATOM
      1 N         141.8532  140.6528  168.2956 N.ar    1  UNL1       -0.2394
      2 N         141.1919  141.5299  167.2742 N.ar    1  UNL1       -0.1680
      3 C         141.4793  140.9592  165.9172 C.ar    1  UNL1        0.1094
      4 C         142.3183  139.7293  166.0998 C.ar    1  UNL1        0.1032
      5 C         142.5494  139.5399  167.5697 C.ar    1  UNL1        0.1280
      6 N         143.3383  138.4321  168.2027 N.pl3   1  UNL1       -0.3427
      7 H         143.7605  137.7442  167.6390 H       1  UNL1        0.1437
      8 H         143.4338  138.3930  169.1818 H       1  UNL1        0.1437
      9 C         141.0100  141.5199  164.6074 C.ar    1  UNL1        0.0387
     10 C         139.9682  140.7926  163.8103 C.ar    1  UNL1        0.1003
     11 N         139.4990  141.3533  162.5006 N.ar    1  UNL1       -0.2437
     12 C         140.0717  142.6415  161.9880 C.ar    1  UNL1        0.0843
     13 C         139.6024  143.2022  160.6782 C.ar    1  UNL1        0.0560
     14 C         140.1751  144.4903  160.1656 C.ar    1  UNL1        0.1399
     15 C         141.2170  145.2177  160.9627 C.ar    1  UNL1        0.0370
     16 C         141.6862  144.6569  162.2724 C.ar    1  UNL1        0.0046
     17 C         141.1135  143.3688  162.7851 C.ar    1  UNL1        0.0179
     18 C         141.5827  142.8081  164.0948 C.ar    1  UNL1        0.0046
     19 O         139.7059  145.0511  158.8559 O.3     1  UNL1       -0.4791
     20 C         140.7036  145.5515  157.8537 C.3     1  UNL1        0.1661
     21 C         142.1170  145.8964  157.4886 C.3     1  UNL1        0.0472
     22 C         141.0182  146.0732  156.4830 C.3     1  UNL1        0.0472
     23 C         142.8354  138.8441  165.0048 C.2     1  UNL1        0.2470
     24 N         144.1646  139.1322  164.3721 N.am    1  UNL1       -0.3252
     25 O         142.0233  137.6708  164.5424 O.2     1  UNL1       -0.2702
     26 H         144.6976  139.9023  164.6755 H       1  UNL1        0.1453
     27 H         144.5039  138.5512  163.6534 H       1  UNL1        0.1453
     28 C         143.0680  141.6863  169.6942 C.3     1  UNL1        0.0270
     29 C         141.8236  140.8533  169.7818 C.3     1  UNL1        0.1147
     30 C         140.5793  140.0203  169.8694 C.3     1  UNL1        0.0270
     31 C         141.7940  141.0538  171.2681 C.3     1  UNL1        0.1594
     32 O         142.1958  142.3745  171.8548 O.3     1  UNL1       -0.3800
     33 H         143.1390  142.5285  171.6890 H       1  UNL1        0.2105
@<TRIPOS>BOND
     1    28    29    1
     2    29    30    1
     3    29    31    1
     4    31    32    1
     5    29     1    1
     6     1     2   ar
     7     2     3   ar
     8     3     9    1
     9     9    10   ar
    10    10    11   ar
    11    11    12   ar
    12    12    13   ar
    13    13    14   ar
    14    14    19    1
    15    19    20    1
    16    20    21    1
    17    21    22    1
    18    14    15   ar
    19    15    16   ar
    20    16    17   ar
    21    17    18   ar
    22     3     4   ar
    23     4    23    1
    24    23    24   am
    25    23    25    2
    26     4     5   ar
    27     5     6    1
    28     5     1   ar
    29    18     9   ar
    30    17    12   ar
    31    22    20    1
    32    32    33    1
    33    24    26    1
    34    24    27    1
    35     6     7    1
    36     6     8    1
@<TRIPOS>MOLECULE
*****
 33 36 0 0 0
SMALL
GASTEIGER

@<TRIPOS>ATOM
      1 N         141.2571  141.9392  168.2279 N.ar    1  UNL1       -0.2394
      2 N         140.4214  141.6233  167.0229 N.ar    1  UNL1       -0.1680
      3 C         141.2957  141.7378  165.8095 C.ar    1  UNL1        0.1094
      4 C         142.6718  142.1243  166.2644 C.ar    1  UNL1        0.1032
      5 C         142.6479  142.2488  167.7591 C.ar    1  UNL1        0.1280
      6 N         143.8107  142.6181  168.6317 N.pl3   1  UNL1       -0.3427
      7 H         144.6893  142.8043  168.2284 H       1  UNL1        0.1437
      8 H         143.6954  142.6742  169.6078 H       1  UNL1        0.1437
      9 C         140.8689  141.5063  164.3902 C.ar    1  UNL1        0.0387
     10 C         140.6829  142.6710  163.4635 C.ar    1  UNL1        0.1003
     11 N         140.2561  142.4395  162.0443 N.ar    1  UNL1       -0.2437
     12 C         140.0153  141.0432  161.5518 C.ar    1  UNL1        0.0843
     13 C         139.5884  140.8117  160.1325 C.ar    1  UNL1        0.0560
     14 C         139.3476  139.4155  159.6400 C.ar    1  UNL1        0.1399
     15 C         139.5337  138.2508  160.5668 C.ar    1  UNL1        0.0370
     16 C         139.9605  138.4823  161.9860 C.ar    1  UNL1        0.0046
     17 C         140.2013  139.8785  162.4785 C.ar    1  UNL1        0.0179
     18 C         140.6281  140.1101  163.8977 C.ar    1  UNL1        0.0046
     19 O         138.9208  139.1840  158.2208 O.3     1  UNL1       -0.4791
     20 C         139.6874  138.2302  157.3531 C.3     1  UNL1        0.1661
     21 C         139.7220  137.2370  156.2296 C.3     1  UNL1        0.0472
     22 C         140.9806  137.5716  156.9739 C.3     1  UNL1        0.0472
     23 C         143.8627  142.3473  165.3801 C.2     1  UNL1        0.2470
     24 N         144.4666  143.7155  165.2660 N.am    1  UNL1       -0.3252
     25 O         144.4497  141.2018  164.6097 O.2     1  UNL1       -0.2702
     26 H         144.0813  144.4674  165.7716 H       1  UNL1        0.1453
     27 H         145.2482  143.8618  164.6856 H       1  UNL1        0.1453
     28 C         141.0720  140.4756  169.7522 C.3     1  UNL1        0.0270
     29 C         140.7848  141.9444  169.6516 C.3     1  UNL1        0.1147
     30 C         140.4977  143.4132  169.5509 C.3     1  UNL1        0.0270
     31 C         140.3126  141.9497  171.0753 C.3     1  UNL1        0.1594
     32 O         140.6488  140.8024  171.9812 O.3     1  UNL1       -0.3800
     33 H         140.2041  140.0002  171.6656 H       1  UNL1        0.2105
@<TRIPOS>BOND
     1    28    29    1
     2    29    30    1
     3    29    31    1
     4    31    32    1
     5    29     1    1
     6     1     2   ar
     7     2     3   ar
     8     3     9    1
     9     9    10   ar
    10    10    11   ar
    11    11    12   ar
    12    12    13   ar
    13    13    14   ar
    14    14    19    1
    15    19    20    1
    16    20    21    1
    17    21    22    1
    18    14    15   ar
    19    15    16   ar
    20    16    17   ar
    21    17    18   ar
    22     3     4   ar
    23     4    23    1
    24    23    24   am
    25    23    25    2
    26     4     5   ar
    27     5     6    1
    28     5     1   ar
    29    18     9   ar
    30    17    12   ar
    31    22    20    1
    32    32    33    1
    33    24    26    1
    34    24    27    1
    35     6     7    1
    36     6     8    1
