@<TRIPOS>MOLECULE
*****
 31 36 0 0 0
SMALL
GASTEIGER

@<TRIPOS>ATOM
      1 O         143.4538  140.7255  160.0249 O.2     1  UNL1       -0.2700
      2 C         142.8841  140.6523  161.4106 C.2     1  UNL1        0.2504
      3 N         143.8583  141.4342  162.2410 N.am    1  UNL1       -0.3003
      4 C         144.3367  142.0019  163.5444 C.3     1  UNL1        0.0974
      5 C         145.5227  142.8284  163.9449 C.3     1  UNL1        0.0234
      6 C         145.3418  142.4209  162.5127 C.3     1  UNL1        0.0234
      7 C         144.2097  142.2254  165.0222 C.3     1  UNL1        0.2247
      8 O         143.5063  142.0536  166.3359 O.3     1  UNL1       -0.4587
      9 C         142.3877  141.5257  167.1845 C.ar    1  UNL1        0.2225
     10 N         143.0500  142.1824  168.3592 N.ar    1  UNL1       -0.2080
     11 C         142.4348  142.0762  169.7231 C.ar    1  UNL1        0.1316
     12 C         141.1572  141.3132  169.9122 C.ar    1  UNL1        0.1592
     13 F         140.5419  141.2069  171.2761 F       1  UNL1       -0.2025
     14 C         140.4949  140.6565  168.7374 C.ar    1  UNL1        0.0333
     15 C         141.1102  140.7627  167.3736 C.ar    1  UNL1        0.0536
     16 C         139.9664  139.9394  166.8599 C.3     1  UNL1        0.1309
     17 C         139.4432  139.8995  168.2652 C.3     1  UNL1        0.1665
     18 O         138.1721  139.1646  168.5715 O.3     1  UNL1       -0.3498
     19 C         137.4240  138.4696  167.4727 C.3     1  UNL1        0.1636
     20 C         137.9471  138.5095  166.0675 C.3     1  UNL1        0.1245
     21 N         139.2183  139.2444  165.7611 N.pl3   1  UNL1       -0.2858
     22 C         139.0374  138.8370  164.3289 C.ar    1  UNL1        0.1352
     23 C         138.2248  137.9941  162.7066 C.ar    1  UNL1        0.0551
     24 C         138.4907  137.8593  161.2365 C.ar    1  UNL1        0.1050
     25 N         139.7062  138.4982  160.6326 N.ar    1  UNL1       -0.2104
     26 N         140.5092  138.7472  159.3904 N.ar    1  UNL1       -0.1619
     27 C         141.7026  139.5737  159.7680 C.ar    1  UNL1        0.1281
     28 C         141.6372  139.8354  161.2435 C.ar    1  UNL1        0.1099
     29 C         140.4033  139.1707  161.7778 C.ar    1  UNL1        0.1710
     30 N         139.4650  138.8104  162.8914 N.ar    1  UNL1       -0.2116
     31 H         144.5383  141.7278  161.5924 H       1  UNL1        0.1498
@<TRIPOS>BOND
     1     1     2    2
     2     2     3   am
     3     3     4    1
     4     4     5    1
     5     5     6    1
     6     4     7    1
     7     7     8    1
     8     8     9    1
     9     9    10   ar
    10    10    11   ar
    11    11    12   ar
    12    12    13    1
    13    12    14   ar
    14    14    15   ar
    15    15    16    1
    16    16    17    1
    17    17    18    1
    18    18    19    1
    19    19    20    1
    20    20    21    1
    21    21    22    1
    22    22    23   ar
    23    23    24   ar
    24    24    25   ar
    25    25    26   ar
    26    26    27   ar
    27    27    28   ar
    28    28    29   ar
    29    29    30   ar
    30    28     2    1
    31     6     4    1
    32    15     9   ar
    33    21    16    1
    34    30    22   ar
    35    29    25   ar
    36     3    31    1
@<TRIPOS>MOLECULE
*****
 31 36 0 0 0
SMALL
GASTEIGER

@<TRIPOS>ATOM
      1 O         142.4822  140.6868  165.8790 O.2     1  UNL1       -0.2700
      2 C         141.9684  141.1246  164.5395 C.2     1  UNL1        0.2504
      3 N         142.7130  142.3982  164.2681 N.am    1  UNL1       -0.3003
      4 C         143.0412  143.5895  163.4178 C.3     1  UNL1        0.0974
      5 C         143.9732  144.7541  163.5761 C.3     1  UNL1        0.0234
      6 C         143.8884  143.7100  164.6497 C.3     1  UNL1        0.0234
      7 C         142.8776  144.4258  162.1833 C.3     1  UNL1        0.2247
      8 O         142.2599  144.7153  160.8474 O.3     1  UNL1       -0.4587
      9 C         141.3294  144.3919  159.7162 C.ar    1  UNL1        0.2225
     10 N         141.8100  145.6432  159.0431 N.ar    1  UNL1       -0.2080
     11 C         141.2607  146.0322  157.7027 C.ar    1  UNL1        0.1316
     12 C         140.2307  145.1699  157.0353 C.ar    1  UNL1        0.1592
     13 F         139.6813  145.5588  155.6948 F       1  UNL1       -0.2025
     14 C         139.7501  143.9185  157.7084 C.ar    1  UNL1        0.0333
     15 C         140.2995  143.5295  159.0488 C.ar    1  UNL1        0.0536
     16 C         139.4059  142.3257  158.9981 C.3     1  UNL1        0.1309
     17 C         138.9284  142.8117  157.6617 C.3     1  UNL1        0.1665
     18 O         137.8986  142.0283  156.9030 O.3     1  UNL1       -0.3498
     19 C         137.3462  140.7590  157.4806 C.3     1  UNL1        0.1636
     20 C         137.8236  140.2730  158.8169 C.3     1  UNL1        0.1245
     21 N         138.8534  141.0564  159.5757 N.pl3   1  UNL1       -0.2858
     22 C         138.7687  140.0123  160.6493 C.ar    1  UNL1        0.1352
     23 C         138.1865  138.3626  161.6200 C.ar    1  UNL1        0.0551
     24 C         138.4609  137.6380  162.9044 C.ar    1  UNL1        0.1050
     25 N         139.4586  138.1905  163.8788 N.ar    1  UNL1       -0.2104
     26 N         140.1531  138.0227  165.1977 N.ar    1  UNL1       -0.1619
     27 C         141.0920  139.1786  165.3774 C.ar    1  UNL1        0.1281
     28 C         140.9778  140.0607  164.1696 C.ar    1  UNL1        0.1099
     29 C         139.9683  139.4500  163.2435 C.ar    1  UNL1        0.1710
     30 N         139.1710  139.4326  161.9730 N.ar    1  UNL1       -0.2116
     31 H         143.2842  142.5109  165.0620 H       1  UNL1        0.1498
@<TRIPOS>BOND
     1     1     2    2
     2     2     3   am
     3     3     4    1
     4     4     5    1
     5     5     6    1
     6     4     7    1
     7     7     8    1
     8     8     9    1
     9     9    10   ar
    10    10    11   ar
    11    11    12   ar
    12    12    13    1
    13    12    14   ar
    14    14    15   ar
    15    15    16    1
    16    16    17    1
    17    17    18    1
    18    18    19    1
    19    19    20    1
    20    20    21    1
    21    21    22    1
    22    22    23   ar
    23    23    24   ar
    24    24    25   ar
    25    25    26   ar
    26    26    27   ar
    27    27    28   ar
    28    28    29   ar
    29    29    30   ar
    30    28     2    1
    31     6     4    1
    32    15     9   ar
    33    21    16    1
    34    30    22   ar
    35    29    25   ar
    36     3    31    1
@<TRIPOS>MOLECULE
*****
 31 36 0 0 0
SMALL
GASTEIGER

@<TRIPOS>ATOM
      1 O         141.4330  140.8236  164.7739 O.2     1  UNL1       -0.2700
      2 C         141.7416  141.1951  163.3538 C.2     1  UNL1        0.2504
      3 N         142.5460  140.0354  162.8460 N.am    1  UNL1       -0.3003
      4 C         143.3139  139.3191  161.7748 C.3     1  UNL1        0.0974
      5 C         144.0391  138.0073  161.7167 C.3     1  UNL1        0.0234
      6 C         143.3576  138.4321  162.9837 C.3     1  UNL1        0.0234
      7 C         143.8693  139.2105  160.3857 C.3     1  UNL1        0.2247
      8 O         144.0850  139.7343  158.9968 O.3     1  UNL1       -0.4587
      9 C         143.9116  140.7706  157.9263 C.ar    1  UNL1        0.2225
     10 N         144.7124  139.8823  157.0211 N.ar    1  UNL1       -0.2080
     11 C         144.9906  140.3052  155.6092 C.ar    1  UNL1        0.1316
     12 C         144.4678  141.6166  155.1023 C.ar    1  UNL1        0.1592
     13 F         144.7458  142.0397  153.6903 F       1  UNL1       -0.2025
     14 C         143.6668  142.5050  156.0075 C.ar    1  UNL1        0.0333
     15 C         143.3888  142.0820  157.4195 C.ar    1  UNL1        0.0536
     16 C         142.6363  143.3681  157.5924 C.3     1  UNL1        0.1309
     17 C         142.9750  143.6875  156.1664 C.3     1  UNL1        0.1665
     18 O         142.5040  144.9730  155.5536 O.3     1  UNL1       -0.3498
     19 C         141.6943  145.9391  156.3667 C.3     1  UNL1        0.1636
     20 C         141.3556  145.6197  157.7926 C.3     1  UNL1        0.1245
     21 N         141.8266  144.3342  158.4054 N.pl3   1  UNL1       -0.2858
     22 C         141.1452  144.7590  159.6724 C.ar    1  UNL1        0.1352
     23 C         140.0872  145.8786  160.9490 C.ar    1  UNL1        0.0551
     24 C         139.6004  145.8401  162.3673 C.ar    1  UNL1        0.1050
     25 N         139.9213  144.6619  163.2385 N.ar    1  UNL1       -0.2104
     26 N         139.7823  144.0216  164.5879 N.ar    1  UNL1       -0.1619
     27 C         140.5015  142.7057  164.5528 C.ar    1  UNL1        0.1281
     28 C         141.0849  142.5327  163.1818 C.ar    1  UNL1        0.1099
     29 C         140.7264  143.7417  162.3696 C.ar    1  UNL1        0.1710
     30 N         140.7481  144.5451  161.1030 N.ar    1  UNL1       -0.2116
     31 H         142.5962  139.4272  163.6185 H       1  UNL1        0.1498
@<TRIPOS>BOND
     1     1     2    2
     2     2     3   am
     3     3     4    1
     4     4     5    1
     5     5     6    1
     6     4     7    1
     7     7     8    1
     8     8     9    1
     9     9    10   ar
    10    10    11   ar
    11    11    12   ar
    12    12    13    1
    13    12    14   ar
    14    14    15   ar
    15    15    16    1
    16    16    17    1
    17    17    18    1
    18    18    19    1
    19    19    20    1
    20    20    21    1
    21    21    22    1
    22    22    23   ar
    23    23    24   ar
    24    24    25   ar
    25    25    26   ar
    26    26    27   ar
    27    27    28   ar
    28    28    29   ar
    29    29    30   ar
    30    28     2    1
    31     6     4    1
    32    15     9   ar
    33    21    16    1
    34    30    22   ar
    35    29    25   ar
    36     3    31    1
@<TRIPOS>MOLECULE
*****
 31 36 0 0 0
SMALL
GASTEIGER

@<TRIPOS>ATOM
      1 O         141.3895  139.4607  165.7507 O.2     1  UNL1       -0.2700
      2 C         141.0135  140.0959  164.4449 C.2     1  UNL1        0.2504
      3 N         140.0108  139.1462  163.8594 N.am    1  UNL1       -0.3003
      4 C         139.0578  138.7181  162.7830 C.3     1  UNL1        0.0974
      5 C         138.1511  137.5361  162.6079 C.3     1  UNL1        0.0234
      6 C         138.9946  137.6579  163.8423 C.3     1  UNL1        0.0234
      7 C         138.3729  138.9096  161.4624 C.3     1  UNL1        0.2247
      8 O         138.1129  139.6768  160.1999 O.3     1  UNL1       -0.4587
      9 C         138.3373  140.8440  159.2849 C.ar    1  UNL1        0.2225
     10 N         137.3419  140.2245  158.3494 N.ar    1  UNL1       -0.2080
     11 C         137.0040  140.9047  157.0560 C.ar    1  UNL1        0.1316
     12 C         137.6615  142.2045  156.6980 C.ar    1  UNL1        0.1592
     13 F         137.3237  142.8848  155.4045 F       1  UNL1       -0.2025
     14 C         138.6570  142.8241  157.6335 C.ar    1  UNL1        0.0333
     15 C         138.9949  142.1438  158.9270 C.ar    1  UNL1        0.0536
     16 C         139.9349  143.2784  159.2081 C.3     1  UNL1        0.1309
     17 C         139.5213  143.8673  157.8920 C.3     1  UNL1        0.1665
     18 O         140.1148  145.1657  157.4317 O.3     1  UNL1       -0.3498
     19 C         141.1219  145.8752  158.2875 C.3     1  UNL1        0.1636
     20 C         141.5355  145.2864  159.6035 C.3     1  UNL1        0.1245
     21 N         140.9421  143.9880  160.0639 N.pl3   1  UNL1       -0.2858
     22 C         141.7855  144.1098  161.2982 C.ar    1  UNL1        0.1352
     23 C         143.1000  144.8622  162.6054 C.ar    1  UNL1        0.0551
     24 C         143.6989  144.5306  163.9401 C.ar    1  UNL1        0.1050
     25 N         143.2913  143.2759  164.6541 N.ar    1  UNL1       -0.2104
     26 N         143.4557  142.4110  165.8685 N.ar    1  UNL1       -0.1619
     27 C         142.5564  141.2204  165.7147 C.ar    1  UNL1        0.1281
     28 C         141.8362  141.3495  164.4053 C.ar    1  UNL1        0.1099
     29 C         142.2904  142.6199  163.7498 C.ar    1  UNL1        0.1710
     30 N         142.2721  143.6161  162.6284 N.ar    1  UNL1       -0.2116
     31 H         139.9426  138.4311  164.5325 H       1  UNL1        0.1498
@<TRIPOS>BOND
     1     1     2    2
     2     2     3   am
     3     3     4    1
     4     4     5    1
     5     5     6    1
     6     4     7    1
     7     7     8    1
     8     8     9    1
     9     9    10   ar
    10    10    11   ar
    11    11    12   ar
    12    12    13    1
    13    12    14   ar
    14    14    15   ar
    15    15    16    1
    16    16    17    1
    17    17    18    1
    18    18    19    1
    19    19    20    1
    20    20    21    1
    21    21    22    1
    22    22    23   ar
    23    23    24   ar
    24    24    25   ar
    25    25    26   ar
    26    26    27   ar
    27    27    28   ar
    28    28    29   ar
    29    29    30   ar
    30    28     2    1
    31     6     4    1
    32    15     9   ar
    33    21    16    1
    34    30    22   ar
    35    29    25   ar
    36     3    31    1
@<TRIPOS>MOLECULE
*****
 31 36 0 0 0
SMALL
GASTEIGER

@<TRIPOS>ATOM
      1 O         140.2624  142.6446  165.2611 O.2     1  UNL1       -0.2700
      2 C         140.8376  142.2145  163.9443 C.2     1  UNL1        0.2504
      3 N         141.9700  143.1717  163.7174 N.am    1  UNL1       -0.3003
      4 C         143.1183  143.7038  162.9122 C.3     1  UNL1        0.0974
      5 C         144.0932  144.8267  163.1089 C.3     1  UNL1        0.0234
      6 C         143.0378  144.5605  164.1409 C.3     1  UNL1        0.0234
      7 C         144.0195  143.6889  161.7132 C.3     1  UNL1        0.2247
      8 O         144.4671  143.1303  160.3950 O.3     1  UNL1       -0.4587
      9 C         144.3586  142.1561  159.2596 C.ar    1  UNL1        0.2225
     10 N         145.5319  142.8490  158.6326 N.ar    1  UNL1       -0.2080
     11 C         146.0655  142.3754  157.3132 C.ar    1  UNL1        0.1316
     12 C         145.4257  141.2087  156.6207 C.ar    1  UNL1        0.1592
     13 F         145.9592  140.7350  155.3013 F       1  UNL1       -0.2025
     14 C         144.2523  140.5157  157.2477 C.ar    1  UNL1        0.0333
     15 C         143.7188  140.9895  158.5671 C.ar    1  UNL1        0.0536
     16 C         142.6943  139.8975  158.4761 C.3     1  UNL1        0.1309
     17 C         143.3104  139.5118  157.1640 C.3     1  UNL1        0.1665
     18 O         142.7520  138.3591  156.3834 O.3     1  UNL1       -0.3498
     19 C         141.5775  137.5922  156.9149 C.3     1  UNL1        0.1636
     20 C         140.9614  137.9779  158.2269 C.3     1  UNL1        0.1245
     21 N         141.5198  139.1306  159.0076 N.pl3   1  UNL1       -0.2858
     22 C         140.4645  138.8643  160.0397 C.ar    1  UNL1        0.1352
     23 C         138.9052  138.0015  160.9491 C.ar    1  UNL1        0.0551
     24 C         138.0923  138.1453  162.2014 C.ar    1  UNL1        0.1050
     25 N         138.4206  139.2259  163.1887 N.ar    1  UNL1       -0.2104
     26 N         138.0799  139.8814  164.4942 N.ar    1  UNL1       -0.1619
     27 C         139.0441  141.0097  164.7117 C.ar    1  UNL1        0.1281
     28 C         139.9806  141.0514  163.5408 C.ar    1  UNL1        0.1099
     29 C         139.5953  139.9490  162.5995 C.ar    1  UNL1        0.1710
     30 N         139.7699  139.1596  161.3360 N.ar    1  UNL1       -0.2116
     31 H         141.9482  143.7547  164.5104 H       1  UNL1        0.1498
@<TRIPOS>BOND
     1     1     2    2
     2     2     3   am
     3     3     4    1
     4     4     5    1
     5     5     6    1
     6     4     7    1
     7     7     8    1
     8     8     9    1
     9     9    10   ar
    10    10    11   ar
    11    11    12   ar
    12    12    13    1
    13    12    14   ar
    14    14    15   ar
    15    15    16    1
    16    16    17    1
    17    17    18    1
    18    18    19    1
    19    19    20    1
    20    20    21    1
    21    21    22    1
    22    22    23   ar
    23    23    24   ar
    24    24    25   ar
    25    25    26   ar
    26    26    27   ar
    27    27    28   ar
    28    28    29   ar
    29    29    30   ar
    30    28     2    1
    31     6     4    1
    32    15     9   ar
    33    21    16    1
    34    30    22   ar
    35    29    25   ar
    36     3    31    1
@<TRIPOS>MOLECULE
*****
 31 36 0 0 0
SMALL
GASTEIGER

@<TRIPOS>ATOM
      1 O         139.6119  141.3629  165.6854 O.2     1  UNL1       -0.2700
      2 C         140.0638  141.2578  164.2590 C.2     1  UNL1        0.2504
      3 N         140.3950  139.8042  164.0936 N.am    1  UNL1       -0.3003
      4 C         140.8667  138.6332  163.2834 C.3     1  UNL1        0.0974
      5 C         141.0593  137.1753  163.5789 C.3     1  UNL1        0.0234
      6 C         140.5569  138.0976  164.6498 C.3     1  UNL1        0.0234
      7 C         141.3707  138.0132  162.0139 C.3     1  UNL1        0.2247
      8 O         141.7917  138.0861  160.5761 O.3     1  UNL1       -0.4587
      9 C         142.0331  138.8353  159.2991 C.ar    1  UNL1        0.2225
     10 N         142.4688  137.5357  158.6900 N.ar    1  UNL1       -0.2080
     11 C         142.9112  137.4897  157.2575 C.ar    1  UNL1        0.1316
     12 C         142.9178  138.7435  156.4340 C.ar    1  UNL1        0.1592
     13 F         143.3601  138.6977  155.0015 F       1  UNL1       -0.2025
     14 C         142.4821  140.0432  157.0432 C.ar    1  UNL1        0.0333
     15 C         142.0398  140.0890  158.4758 C.ar    1  UNL1        0.0536
     16 C         141.8100  141.5602  158.2945 C.3     1  UNL1        0.1309
     17 C         142.2709  141.3959  156.8765 C.3     1  UNL1        0.1665
     18 O         142.3182  142.5831  155.9610 O.3     1  UNL1       -0.3498
     19 C         141.9048  143.9346  156.4634 C.3     1  UNL1        0.1636
     20 C         141.4440  144.0990  157.8813 C.3     1  UNL1        0.1245
     21 N         141.3966  142.9118  158.7969 N.pl3   1  UNL1       -0.2858
     22 C         140.8942  143.8340  159.8678 C.ar    1  UNL1        0.1352
     23 C         140.2971  145.5210  160.7625 C.ar    1  UNL1        0.0551
     24 C         139.8021  145.9903  162.0984 C.ar    1  UNL1        0.1050
     25 N         139.6496  145.0139  163.2269 N.ar    1  UNL1       -0.2104
     26 N         139.2578  144.7992  164.6588 N.ar    1  UNL1       -0.1619
     27 C         139.4429  143.3450  164.9769 C.ar    1  UNL1        0.1281
     28 C         139.9489  142.6611  163.7416 C.ar    1  UNL1        0.1099
     29 C         140.0767  143.6924  162.6601 C.ar    1  UNL1        0.1710
     30 N         140.4178  144.1158  161.2620 N.ar    1  UNL1       -0.2116
     31 H         140.2025  139.4166  164.9778 H       1  UNL1        0.1498
@<TRIPOS>BOND
     1     1     2    2
     2     2     3   am
     3     3     4    1
     4     4     5    1
     5     5     6    1
     6     4     7    1
     7     7     8    1
     8     8     9    1
     9     9    10   ar
    10    10    11   ar
    11    11    12   ar
    12    12    13    1
    13    12    14   ar
    14    14    15   ar
    15    15    16    1
    16    16    17    1
    17    17    18    1
    18    18    19    1
    19    19    20    1
    20    20    21    1
    21    21    22    1
    22    22    23   ar
    23    23    24   ar
    24    24    25   ar
    25    25    26   ar
    26    26    27   ar
    27    27    28   ar
    28    28    29   ar
    29    29    30   ar
    30    28     2    1
    31     6     4    1
    32    15     9   ar
    33    21    16    1
    34    30    22   ar
    35    29    25   ar
    36     3    31    1
@<TRIPOS>MOLECULE
*****
 31 36 0 0 0
SMALL
GASTEIGER

@<TRIPOS>ATOM
      1 O         140.8848  143.2343  159.5012 O.2     1  UNL1       -0.2700
      2 C         141.1001  142.7411  160.9014 C.2     1  UNL1        0.2504
      3 N         140.3555  143.7299  161.7487 N.am    1  UNL1       -0.3003
      4 C         139.8845  144.2561  163.0720 C.3     1  UNL1        0.0974
      5 C         139.0498  145.4320  163.4852 C.3     1  UNL1        0.0234
      6 C         139.3385  145.1903  162.0332 C.3     1  UNL1        0.0234
      7 C         139.7950  144.1992  164.5683 C.3     1  UNL1        0.2247
      8 O         140.1075  143.5723  165.8947 O.3     1  UNL1       -0.4587
      9 C         140.7504  142.5189  166.7474 C.ar    1  UNL1        0.2225
     10 N         140.1725  143.2188  167.9415 N.ar    1  UNL1       -0.2080
     11 C         140.4205  142.6802  169.3193 C.ar    1  UNL1        0.1316
     12 C         141.2466  141.4417  169.5029 C.ar    1  UNL1        0.1592
     13 F         141.4947  140.9030  170.8807 F       1  UNL1       -0.2025
     14 C         141.8246  140.7418  168.3087 C.ar    1  UNL1        0.0333
     15 C         141.5765  141.2805  166.9309 C.ar    1  UNL1        0.0536
     16 C         142.3965  140.1405  166.4034 C.3     1  UNL1        0.1309
     17 C         142.5785  139.6937  167.8237 C.3     1  UNL1        0.1665
     18 O         143.3866  138.4667  168.1262 O.3     1  UNL1       -0.3498
     19 C         144.0126  137.6866  167.0084 C.3     1  UNL1        0.1636
     20 C         143.8306  138.1333  165.5881 C.3     1  UNL1        0.1245
     21 N         143.0225  139.3603  165.2856 N.pl3   1  UNL1       -0.2858
     22 C         143.3111  139.1187  163.8337 C.ar    1  UNL1        0.1352
     23 C         144.0416  138.2517  162.1851 C.ar    1  UNL1        0.0551
     24 C         144.0379  138.4445  160.6976 C.ar    1  UNL1        0.1050
     25 N         143.3019  139.6035  160.0934 N.ar    1  UNL1       -0.2104
     26 N         142.9148  140.3310  158.8401 N.ar    1  UNL1       -0.1619
     27 C         142.0779  141.5132  159.2300 C.ar    1  UNL1        0.1281
     28 C         141.9478  141.5163  160.7243 C.ar    1  UNL1        0.1099
     29 C         142.7042  140.3361  161.2579 C.ar    1  UNL1        0.1710
     30 N         143.1963  139.4708  162.3801 N.ar    1  UNL1       -0.2116
     31 H         139.9803  144.3641  161.0959 H       1  UNL1        0.1498
@<TRIPOS>BOND
     1     1     2    2
     2     2     3   am
     3     3     4    1
     4     4     5    1
     5     5     6    1
     6     4     7    1
     7     7     8    1
     8     8     9    1
     9     9    10   ar
    10    10    11   ar
    11    11    12   ar
    12    12    13    1
    13    12    14   ar
    14    14    15   ar
    15    15    16    1
    16    16    17    1
    17    17    18    1
    18    18    19    1
    19    19    20    1
    20    20    21    1
    21    21    22    1
    22    22    23   ar
    23    23    24   ar
    24    24    25   ar
    25    25    26   ar
    26    26    27   ar
    27    27    28   ar
    28    28    29   ar
    29    29    30   ar
    30    28     2    1
    31     6     4    1
    32    15     9   ar
    33    21    16    1
    34    30    22   ar
    35    29    25   ar
    36     3    31    1
@<TRIPOS>MOLECULE
*****
 31 36 0 0 0
SMALL
GASTEIGER

@<TRIPOS>ATOM
      1 O         142.3298  145.1235  152.7329 O.2     1  UNL1       -0.2700
      2 C         142.2804  144.8963  154.2147 C.2     1  UNL1        0.2504
      3 N         141.1794  145.8025  154.6803 N.am    1  UNL1       -0.3003
      4 C         140.3070  146.3924  155.7484 C.3     1  UNL1        0.0974
      5 C         139.1929  147.3967  155.7430 C.3     1  UNL1        0.0234
      6 C         139.8708  147.0217  154.4586 C.3     1  UNL1        0.0234
      7 C         139.8629  146.5308  157.1745 C.3     1  UNL1        0.2247
      8 O         139.9490  146.1861  158.6318 O.3     1  UNL1       -0.4587
      9 C         140.5455  145.4372  159.7865 C.ar    1  UNL1        0.2225
     10 N         139.5711  146.1519  160.6750 N.ar    1  UNL1       -0.2080
     11 C         139.5668  145.8851  162.1511 C.ar    1  UNL1        0.1316
     12 C         140.5370  144.9036  162.7386 C.ar    1  UNL1        0.1592
     13 F         140.5328  144.6368  164.2147 F       1  UNL1       -0.2025
     14 C         141.5115  144.1888  161.8501 C.ar    1  UNL1        0.0333
     15 C         141.5158  144.4557  160.3740 C.ar    1  UNL1        0.0536
     16 C         142.6375  143.4663  160.2599 C.3     1  UNL1        0.1309
     17 C         142.5429  143.2792  161.7452 C.3     1  UNL1        0.1665
     18 O         143.4645  142.3217  162.4406 O.3     1  UNL1       -0.3498
     19 C         144.4807  141.5513  161.6508 C.3     1  UNL1        0.1636
     20 C         144.5754  141.7383  160.1656 C.3     1  UNL1        0.1245
     21 N         143.6537  142.6959  159.4701 N.pl3   1  UNL1       -0.2858
     22 C         144.3316  142.3209  158.1857 C.ar    1  UNL1        0.1352
     23 C         145.5944  141.4146  156.9259 C.ar    1  UNL1        0.0551
     24 C         145.9224  141.3875  155.4625 C.ar    1  UNL1        0.1050
     25 N         145.1564  142.2527  154.5060 N.ar    1  UNL1       -0.2104
     26 N         144.9627  142.6880  153.0837 N.ar    1  UNL1       -0.1619
     27 C         143.8510  143.6946  153.0544 C.ar    1  UNL1        0.1281
     28 C         143.3577  143.8814  154.4585 C.ar    1  UNL1        0.1099
     29 C         144.1644  142.9903  155.3557 C.ar    1  UNL1        0.1710
     30 N         144.5159  142.4271  156.7008 N.ar    1  UNL1       -0.2116
     31 H         140.8660  146.2362  153.8539 H       1  UNL1        0.1498
@<TRIPOS>BOND
     1     1     2    2
     2     2     3   am
     3     3     4    1
     4     4     5    1
     5     5     6    1
     6     4     7    1
     7     7     8    1
     8     8     9    1
     9     9    10   ar
    10    10    11   ar
    11    11    12   ar
    12    12    13    1
    13    12    14   ar
    14    14    15   ar
    15    15    16    1
    16    16    17    1
    17    17    18    1
    18    18    19    1
    19    19    20    1
    20    20    21    1
    21    21    22    1
    22    22    23   ar
    23    23    24   ar
    24    24    25   ar
    25    25    26   ar
    26    26    27   ar
    27    27    28   ar
    28    28    29   ar
    29    29    30   ar
    30    28     2    1
    31     6     4    1
    32    15     9   ar
    33    21    16    1
    34    30    22   ar
    35    29    25   ar
    36     3    31    1
@<TRIPOS>MOLECULE
*****
 31 36 0 0 0
SMALL
GASTEIGER

@<TRIPOS>ATOM
      1 O         140.0162  140.5328  165.3554 O.2     1  UNL1       -0.2700
      2 C         140.3882  141.0666  164.0038 C.2     1  UNL1        0.2504
      3 N         139.5303  142.2876  163.8515 N.am    1  UNL1       -0.3003
      4 C         139.0469  143.4844  163.0872 C.3     1  UNL1        0.0974
      5 C         138.0449  144.5637  163.3717 C.3     1  UNL1        0.0234
      6 C         138.2928  143.4848  164.3839 C.3     1  UNL1        0.0234
      7 C         139.0489  144.3828  161.8860 C.3     1  UNL1        0.2247
      8 O         139.5357  144.7769  160.5231 O.3     1  UNL1       -0.4587
      9 C         140.3959  144.5766  159.3106 C.ar    1  UNL1        0.2225
     10 N         139.7704  145.8135  158.7372 N.ar    1  UNL1       -0.2080
     11 C         140.1813  146.3016  157.3797 C.ar    1  UNL1        0.1316
     12 C         141.2177  145.5527  156.5955 C.ar    1  UNL1        0.1592
     13 F         141.6287  146.0407  155.2379 F       1  UNL1       -0.2025
     14 C         141.8432  144.3157  157.1688 C.ar    1  UNL1        0.0333
     15 C         141.4322  143.8277  158.5264 C.ar    1  UNL1        0.0536
     16 C         142.4075  142.7017  158.3501 C.3     1  UNL1        0.1309
     17 C         142.7399  143.2805  157.0067 C.3     1  UNL1        0.1665
     18 O         143.7630  142.6141  156.1354 O.3     1  UNL1       -0.3498
     19 C         144.4536  141.3690  156.6074 C.3     1  UNL1        0.1636
     20 C         144.1213  140.7903  157.9507 C.3     1  UNL1        0.1245
     21 N         143.0982  141.4567  158.8221 N.pl3   1  UNL1       -0.2858
     22 C         143.3461  140.3778  159.8342 C.ar    1  UNL1        0.1352
     23 C         144.1260  138.7394  160.6770 C.ar    1  UNL1        0.0551
     24 C         144.0094  137.9413  161.9416 C.ar    1  UNL1        0.1050
     25 N         143.0528  138.3711  163.0142 N.ar    1  UNL1       -0.2104
     26 N         142.4791  138.0928  164.3719 N.ar    1  UNL1       -0.1619
     27 C         141.4725  139.1621  164.6778 C.ar    1  UNL1        0.1281
     28 C         141.4241  140.1011  163.5091 C.ar    1  UNL1        0.1099
     29 C         142.4007  139.6123  162.4810 C.ar    1  UNL1        0.1710
     30 N         143.0943  139.7121  161.1547 N.ar    1  UNL1       -0.2116
     31 H         139.0166  142.3208  164.6907 H       1  UNL1        0.1498
@<TRIPOS>BOND
     1     1     2    2
     2     2     3   am
     3     3     4    1
     4     4     5    1
     5     5     6    1
     6     4     7    1
     7     7     8    1
     8     8     9    1
     9     9    10   ar
    10    10    11   ar
    11    11    12   ar
    12    12    13    1
    13    12    14   ar
    14    14    15   ar
    15    15    16    1
    16    16    17    1
    17    17    18    1
    18    18    19    1
    19    19    20    1
    20    20    21    1
    21    21    22    1
    22    22    23   ar
    23    23    24   ar
    24    24    25   ar
    25    25    26   ar
    26    26    27   ar
    27    27    28   ar
    28    28    29   ar
    29    29    30   ar
    30    28     2    1
    31     6     4    1
    32    15     9   ar
    33    21    16    1
    34    30    22   ar
    35    29    25   ar
    36     3    31    1
