@<TRIPOS>MOLECULE
*****
 41 46 0 0 0
SMALL
GASTEIGER

@<TRIPOS>ATOM
      1 C         139.1840  139.9744  165.1944 C.3     1  UNL1        0.0832
      2 C         138.1759  139.2493  166.0359 C.3     1  UNL1        0.0374
      3 C         138.2783  139.2916  167.5318 C.3     1  UNL1        0.0739
      4 N         139.3886  140.0590  168.1862 N.3     1  UNL1       -0.2699
      5 C         140.3966  140.7841  167.3447 C.3     1  UNL1        0.0829
      6 C         140.2943  140.7418  165.8488 C.3     1  UNL1        0.1103
      7 O         137.4776  141.9752  163.7505 O.2     1  UNL1       -0.2684
      8 C         138.2285  140.9325  162.9765 C.2     1  UNL1        0.2669
      9 N         139.0817  139.9321  163.6985 N.am    1  UNL1       -0.3006
     10 H         139.5745  139.2477  163.1905 H       1  UNL1        0.1497
     11 C         138.1262  140.8902  161.4806 C.ar    1  UNL1        0.1761
     12 C         138.3516  142.0436  160.5485 C.ar    1  UNL1        0.0673
     13 C         138.1453  141.5534  159.1460 C.ar    1  UNL1        0.1792
     14 O         137.7923  140.0969  159.2113 O.2     1  UNL1       -0.3532
     15 N         137.7805  139.6871  160.6542 N.ar    1  UNL1       -0.0723
     16 C         138.2699  142.3752  157.8974 C.ar    1  UNL1        0.0648
     17 C         139.3968  143.3548  157.7536 C.ar    1  UNL1        0.0077
     18 C         139.5215  144.1766  156.5050 C.ar    1  UNL1        0.0299
     19 C         138.5193  144.0189  155.4002 C.ar    1  UNL1        0.1424
     20 F         138.6440  144.8407  154.1516 F       1  UNL1       -0.2041
     21 C         137.3925  143.0394  155.5439 C.ar    1  UNL1        0.0593
     22 C         137.2678  142.2176  156.7925 C.ar    1  UNL1        0.1453
     23 F         136.1410  141.2380  156.9362 F       1  UNL1       -0.2040
     24 C         141.3023  141.4669  165.0073 C.2     1  UNL1        0.2252
     25 O         141.9592  140.7673  163.8545 O.2     1  UNL1       -0.2750
     26 N         141.6534  142.8916  165.3186 N.am    1  UNL1       -0.3010
     27 H         141.2222  143.3508  166.0752 H       1  UNL1        0.1497
     28 C         142.6614  143.6167  164.4771 C.3     1  UNL1        0.1089
     29 C         143.9833  144.1401  163.9990 C.3     1  UNL1        0.0274
     30 C         143.9155  143.2876  165.2314 C.3     1  UNL1        0.0274
     31 C         141.7574  144.1977  163.4306 C.ar    1  UNL1        0.1549
     32 N         140.4091  144.7302  163.8158 N.ar    1  UNL1       -0.2276
     33 C         139.5050  145.3112  162.7693 C.ar    1  UNL1        0.1019
     34 C         139.9494  145.3597  161.3375 C.ar    1  UNL1        0.0413
     35 C         141.2977  144.8272  160.9522 C.ar    1  UNL1        0.1019
     36 N         142.2018  144.2462  161.9987 N.ar    1  UNL1       -0.2276
     37 C         139.4909  140.1014  169.6821 C.3     1  UNL1        0.1050
     38 C         140.8177  140.3487  170.3365 C.3     1  UNL1        0.1486
     39 F         141.4900  139.0352  170.0668 F       1  UNL1       -0.2386
     40 C         141.9112  141.0522  171.0845 C.3     1  UNL1        0.0368
     41 C         140.6063  141.7481  170.8334 C.3     1  UNL1        0.0368
@<TRIPOS>BOND
     1     7     8    2
     2     8     9   am
     3     1     9    1
     4     1     2    1
     5     2     3    1
     6     3     4    1
     7     4    37    1
     8    37    38    1
     9    38    39    1
    10    38    40    1
    11    40    41    1
    12     4     5    1
    13     5     6    1
    14     6    24    1
    15    24    25    2
    16    24    26   am
    17    26    28    1
    18    28    31    1
    19    31    32   ar
    20    32    33   ar
    21    33    34   ar
    22    34    35   ar
    23    35    36   ar
    24    28    29    1
    25    29    30    1
    26     8    11    1
    27    11    12   ar
    28    12    13   ar
    29    13    16    1
    30    16    17   ar
    31    17    18   ar
    32    18    19   ar
    33    19    20    1
    34    19    21   ar
    35    21    22   ar
    36    22    23    1
    37    13    14   ar
    38    14    15   ar
    39     6     1    1
    40    30    28    1
    41    15    11   ar
    42    41    38    1
    43    36    31   ar
    44    22    16   ar
    45     9    10    1
    46    26    27    1
@<TRIPOS>MOLECULE
*****
 41 46 0 0 0
SMALL
GASTEIGER

@<TRIPOS>ATOM
      1 C         142.2452  139.4065  164.7060 C.3     1  UNL1        0.0832
      2 C         143.0611  138.4970  165.5761 C.3     1  UNL1        0.0374
      3 C         143.1786  138.7718  167.0460 C.3     1  UNL1        0.0739
      4 N         142.4802  139.9561  167.6457 N.3     1  UNL1       -0.2699
      5 C         141.6643  140.8656  166.7756 C.3     1  UNL1        0.0829
      6 C         141.5468  140.5908  165.3058 C.3     1  UNL1        0.1103
      7 O         144.4955  140.1327  162.8596 O.2     1  UNL1       -0.2684
      8 C         143.2528  139.4948  162.3128 C.2     1  UNL1        0.2669
      9 N         142.1276  139.1317  163.2360 N.am    1  UNL1       -0.3006
     10 H         141.3120  138.7131  162.8771 H       1  UNL1        0.1497
     11 C         143.1353  139.2201  160.8429 C.ar    1  UNL1        0.1761
     12 C         141.8865  138.8111  160.1194 C.ar    1  UNL1        0.0673
     13 C         142.2254  138.6443  158.6678 C.ar    1  UNL1        0.1792
     14 O         143.6836  138.9502  158.4941 O.2     1  UNL1       -0.3532
     15 N         144.2459  139.3060  159.8384 N.ar    1  UNL1       -0.0723
     16 C         141.2732  138.2422  157.5807 C.ar    1  UNL1        0.0648
     17 C         140.1077  139.1232  157.2407 C.ar    1  UNL1        0.0077
     18 C         139.1556  138.7211  156.1537 C.ar    1  UNL1        0.0299
     19 C         139.3690  137.4381  155.4065 C.ar    1  UNL1        0.1424
     20 F         138.4169  137.0360  154.3194 F       1  UNL1       -0.2041
     21 C         140.5344  136.5572  155.7464 C.ar    1  UNL1        0.0593
     22 C         141.4865  136.9592  156.8335 C.ar    1  UNL1        0.1453
     23 F         142.6520  136.0783  157.1735 F       1  UNL1       -0.2040
     24 C         140.7308  141.5002  164.4356 C.2     1  UNL1        0.2252
     25 O         141.4035  142.3433  163.3931 O.2     1  UNL1       -0.2750
     26 N         139.2423  141.5667  164.6079 N.am    1  UNL1       -0.3010
     27 H         138.8008  141.0133  165.2922 H       1  UNL1        0.1497
     28 C         138.4263  142.4761  163.7378 C.3     1  UNL1        0.1089
     29 C         137.6709  143.6905  163.2856 C.3     1  UNL1        0.0274
     30 C         138.3173  143.6702  164.6391 C.3     1  UNL1        0.0274
     31 C         138.2519  141.5979  162.5344 C.ar    1  UNL1        0.1549
     32 N         137.8308  140.1682  162.7039 N.ar    1  UNL1       -0.2276
     33 C         137.6564  139.2899  161.5004 C.ar    1  UNL1        0.1019
     34 C         137.9032  139.8413  160.1275 C.ar    1  UNL1        0.0413
     35 C         138.3243  141.2710  159.9580 C.ar    1  UNL1        0.1019
     36 N         138.4987  142.1493  161.1614 N.ar    1  UNL1       -0.2276
     37 C         142.5978  140.2309  169.1157 C.3     1  UNL1        0.1050
     38 C         142.2596  141.5895  169.6541 C.3     1  UNL1        0.1486
     39 F         140.7906  141.4136  169.9010 F       1  UNL1       -0.2386
     40 C         142.4317  143.0091  170.1068 C.3     1  UNL1        0.0368
     41 C         143.6113  142.2372  169.5942 C.3     1  UNL1        0.0368
@<TRIPOS>BOND
     1     7     8    2
     2     8     9   am
     3     1     9    1
     4     1     2    1
     5     2     3    1
     6     3     4    1
     7     4    37    1
     8    37    38    1
     9    38    39    1
    10    38    40    1
    11    40    41    1
    12     4     5    1
    13     5     6    1
    14     6    24    1
    15    24    25    2
    16    24    26   am
    17    26    28    1
    18    28    31    1
    19    31    32   ar
    20    32    33   ar
    21    33    34   ar
    22    34    35   ar
    23    35    36   ar
    24    28    29    1
    25    29    30    1
    26     8    11    1
    27    11    12   ar
    28    12    13   ar
    29    13    16    1
    30    16    17   ar
    31    17    18   ar
    32    18    19   ar
    33    19    20    1
    34    19    21   ar
    35    21    22   ar
    36    22    23    1
    37    13    14   ar
    38    14    15   ar
    39     6     1    1
    40    30    28    1
    41    15    11   ar
    42    41    38    1
    43    36    31   ar
    44    22    16   ar
    45     9    10    1
    46    26    27    1
@<TRIPOS>MOLECULE
*****
 41 46 0 0 0
SMALL
GASTEIGER

@<TRIPOS>ATOM
      1 C         142.9717  140.9479  159.9972 C.3     1  UNL1        0.0832
      2 C         143.6882  139.9726  159.1109 C.3     1  UNL1        0.0374
      3 C         144.3904  140.4564  157.8769 C.3     1  UNL1        0.0739
      4 N         144.3761  141.9155  157.5291 N.3     1  UNL1       -0.2699
      5 C         143.6595  142.8907  158.4153 C.3     1  UNL1        0.0829
      6 C         142.9573  142.4069  159.6494 C.3     1  UNL1        0.1103
      7 O         144.5445  140.3494  162.4807 O.2     1  UNL1       -0.2684
      8 C         143.0559  140.1648  162.4730 C.2     1  UNL1        0.2669
      9 N         142.2695  140.4641  161.2312 N.am    1  UNL1       -0.3006
     10 H         141.2925  140.3430  161.2262 H       1  UNL1        0.1497
     11 C         142.3537  139.6811  163.7071 C.ar    1  UNL1        0.1761
     12 C         142.4340  140.3047  165.0689 C.ar    1  UNL1        0.0673
     13 C         141.5779  139.4978  165.9995 C.ar    1  UNL1        0.1792
     14 O         140.9685  138.3754  165.2127 O.2     1  UNL1       -0.3532
     15 N         141.4480  138.4887  163.7959 N.ar    1  UNL1       -0.0723
     16 C         141.3680  139.7662  167.4603 C.ar    1  UNL1        0.0648
     17 C         142.5402  139.7813  168.3961 C.ar    1  UNL1        0.0077
     18 C         142.3303  140.0496  169.8569 C.ar    1  UNL1        0.0299
     19 C         140.9482  140.3028  170.3818 C.ar    1  UNL1        0.1424
     20 F         140.7383  140.5711  171.8426 F       1  UNL1       -0.2041
     21 C         139.7760  140.2877  169.4461 C.ar    1  UNL1        0.0593
     22 C         139.9859  140.0193  167.9853 C.ar    1  UNL1        0.1453
     23 F         138.8137  140.0042  167.0495 F       1  UNL1       -0.2040
     24 C         142.2407  143.3822  160.5356 C.2     1  UNL1        0.2252
     25 O         143.0123  144.2016  161.5272 O.2     1  UNL1       -0.2750
     26 N         140.7526  143.5379  160.4303 N.am    1  UNL1       -0.3010
     27 H         140.2462  143.0001  159.7795 H       1  UNL1        0.1497
     28 C         140.0360  144.5131  161.3165 C.3     1  UNL1        0.1089
     29 C         139.5330  145.8175  161.8602 C.3     1  UNL1        0.0274
     30 C         140.4023  145.7997  160.6379 C.3     1  UNL1        0.0274
     31 C         139.4208  143.5653  162.3030 C.ar    1  UNL1        0.1549
     32 N         138.0902  142.9376  162.0104 N.ar    1  UNL1       -0.2276
     33 C         137.4749  141.9897  162.9969 C.ar    1  UNL1        0.1019
     34 C         138.1902  141.6696  164.2758 C.ar    1  UNL1        0.0413
     35 C         139.5208  142.2973  164.5684 C.ar    1  UNL1        0.1019
     36 N         140.1361  143.2451  163.5820 N.ar    1  UNL1       -0.2276
     37 C         145.0783  142.3993  156.2950 C.3     1  UNL1        0.1050
     38 C         146.5736  142.3233  156.2045 C.3     1  UNL1        0.1486
     39 F         146.9447  142.8873  157.5440 F       1  UNL1       -0.2386
     40 C         147.9401  142.0515  155.6488 C.3     1  UNL1        0.0368
     41 C         146.7219  141.7329  154.8336 C.3     1  UNL1        0.0368
@<TRIPOS>BOND
     1     7     8    2
     2     8     9   am
     3     1     9    1
     4     1     2    1
     5     2     3    1
     6     3     4    1
     7     4    37    1
     8    37    38    1
     9    38    39    1
    10    38    40    1
    11    40    41    1
    12     4     5    1
    13     5     6    1
    14     6    24    1
    15    24    25    2
    16    24    26   am
    17    26    28    1
    18    28    31    1
    19    31    32   ar
    20    32    33   ar
    21    33    34   ar
    22    34    35   ar
    23    35    36   ar
    24    28    29    1
    25    29    30    1
    26     8    11    1
    27    11    12   ar
    28    12    13   ar
    29    13    16    1
    30    16    17   ar
    31    17    18   ar
    32    18    19   ar
    33    19    20    1
    34    19    21   ar
    35    21    22   ar
    36    22    23    1
    37    13    14   ar
    38    14    15   ar
    39     6     1    1
    40    30    28    1
    41    15    11   ar
    42    41    38    1
    43    36    31   ar
    44    22    16   ar
    45     9    10    1
    46    26    27    1
@<TRIPOS>MOLECULE
*****
 41 46 0 0 0
SMALL
GASTEIGER

@<TRIPOS>ATOM
      1 C         142.3773  138.9950  161.2829 C.3     1  UNL1        0.0832
      2 C         142.6703  137.6371  160.7171 C.3     1  UNL1        0.0374
      3 C         142.9246  137.4758  159.2477 C.3     1  UNL1        0.0739
      4 N         142.8860  138.6725  158.3441 N.3     1  UNL1       -0.2699
      5 C         142.5930  140.0304  158.9099 C.3     1  UNL1        0.0829
      6 C         142.3386  140.1916  160.3793 C.3     1  UNL1        0.1103
      7 O         144.6744  138.9883  163.2124 O.2     1  UNL1       -0.2684
      8 C         143.2715  139.1530  163.7172 C.2     1  UNL1        0.2669
      9 N         142.1229  139.1563  162.7524 N.am    1  UNL1       -0.3006
     10 H         141.2021  139.2643  163.0837 H       1  UNL1        0.1497
     11 C         143.0171  139.3143  165.1866 C.ar    1  UNL1        0.1761
     12 C         142.1138  140.3313  165.8186 C.ar    1  UNL1        0.0673
     13 C         142.1598  140.1325  167.3047 C.ar    1  UNL1        0.1792
     14 O         143.0918  138.9924  167.5910 O.2     1  UNL1       -0.3532
     15 N         143.6216  138.4868  166.2820 N.ar    1  UNL1       -0.0723
     16 C         141.4064  140.9330  168.3251 C.ar    1  UNL1        0.0648
     17 C         140.1072  140.4193  168.8714 C.ar    1  UNL1        0.0077
     18 C         139.3538  141.2198  169.8918 C.ar    1  UNL1        0.0299
     19 C         139.8994  142.5341  170.3661 C.ar    1  UNL1        0.1424
     20 F         139.1460  143.3346  171.3865 F       1  UNL1       -0.2041
     21 C         141.1985  143.0478  169.8199 C.ar    1  UNL1        0.0593
     22 C         141.9520  142.2472  168.7994 C.ar    1  UNL1        0.1453
     23 F         143.2511  142.7610  168.2532 F       1  UNL1       -0.2040
     24 C         142.0456  141.5496  160.9452 C.2     1  UNL1        0.2252
     25 O         142.9034  142.1058  162.0427 O.2     1  UNL1       -0.2750
     26 N         140.8947  142.3513  160.4134 N.am    1  UNL1       -0.3010
     27 H         140.3316  141.9862  159.6931 H       1  UNL1        0.1497
     28 C         140.6016  143.7092  160.9793 C.3     1  UNL1        0.1089
     29 C         140.6423  145.1969  161.1667 C.3     1  UNL1        0.0274
     30 C         141.4607  144.5544  160.0862 C.3     1  UNL1        0.0274
     31 C         139.6408  143.3356  162.0688 C.ar    1  UNL1        0.1549
     32 N         139.7695  143.9571  163.4279 N.ar    1  UNL1       -0.2276
     33 C         138.8087  143.5835  164.5176 C.ar    1  UNL1        0.1019
     34 C         137.7192  142.5884  164.2481 C.ar    1  UNL1        0.0413
     35 C         137.5905  141.9668  162.8890 C.ar    1  UNL1        0.1019
     36 N         138.5513  142.3404  161.7994 N.ar    1  UNL1       -0.2276
     37 C         143.1403  138.5112  156.8746 C.3     1  UNL1        0.1050
     38 C         142.7446  137.2421  156.1798 C.3     1  UNL1        0.1486
     39 F         141.2688  137.2475  156.4480 F       1  UNL1       -0.2386
     40 C         142.8614  135.9711  155.3918 C.3     1  UNL1        0.0368
     41 C         144.0830  136.7959  155.6702 C.3     1  UNL1        0.0368
@<TRIPOS>BOND
     1     7     8    2
     2     8     9   am
     3     1     9    1
     4     1     2    1
     5     2     3    1
     6     3     4    1
     7     4    37    1
     8    37    38    1
     9    38    39    1
    10    38    40    1
    11    40    41    1
    12     4     5    1
    13     5     6    1
    14     6    24    1
    15    24    25    2
    16    24    26   am
    17    26    28    1
    18    28    31    1
    19    31    32   ar
    20    32    33   ar
    21    33    34   ar
    22    34    35   ar
    23    35    36   ar
    24    28    29    1
    25    29    30    1
    26     8    11    1
    27    11    12   ar
    28    12    13   ar
    29    13    16    1
    30    16    17   ar
    31    17    18   ar
    32    18    19   ar
    33    19    20    1
    34    19    21   ar
    35    21    22   ar
    36    22    23    1
    37    13    14   ar
    38    14    15   ar
    39     6     1    1
    40    30    28    1
    41    15    11   ar
    42    41    38    1
    43    36    31   ar
    44    22    16   ar
    45     9    10    1
    46    26    27    1
@<TRIPOS>MOLECULE
*****
 41 46 0 0 0
SMALL
GASTEIGER

@<TRIPOS>ATOM
      1 C         140.2449  140.7665  160.4357 C.3     1  UNL1        0.0832
      2 C         138.9224  141.2414  159.9108 C.3     1  UNL1        0.0374
      3 C         138.1642  142.3083  160.6434 C.3     1  UNL1        0.0739
      4 N         138.7284  142.9004  161.9008 N.3     1  UNL1       -0.2699
      5 C         140.0509  142.4255  162.4257 C.3     1  UNL1        0.0829
      6 C         140.8091  141.3586  161.6931 C.3     1  UNL1        0.1103
      7 O         141.5732  141.3972  157.8207 O.2     1  UNL1       -0.2684
      8 C         141.6673  140.0149  158.3956 C.2     1  UNL1        0.2669
      9 N         141.0032  139.6995  159.7031 N.am    1  UNL1       -0.3006
     10 H         141.0650  138.7923  160.0805 H       1  UNL1        0.1497
     11 C         142.4256  138.9480  157.6631 C.ar    1  UNL1        0.1761
     12 C         141.9899  137.5244  157.4800 C.ar    1  UNL1        0.0673
     13 C         143.0477  136.8139  156.6887 C.ar    1  UNL1        0.1792
     14 O         144.1373  137.7984  156.3828 O.2     1  UNL1       -0.3532
     15 N         143.7528  139.1173  156.9850 N.ar    1  UNL1       -0.0723
     16 C         143.0208  135.3721  156.2759 C.ar    1  UNL1        0.0648
     17 C         142.7509  135.0062  154.8464 C.ar    1  UNL1        0.0077
     18 C         142.7240  133.5644  154.4336 C.ar    1  UNL1        0.0299
     19 C         142.9669  132.4885  155.4502 C.ar    1  UNL1        0.1424
     20 F         142.9399  131.0467  155.0373 F       1  UNL1       -0.2041
     21 C         143.2367  132.8544  156.8795 C.ar    1  UNL1        0.0593
     22 C         143.2637  134.2962  157.2924 C.ar    1  UNL1        0.1453
     23 F         143.5335  134.6621  158.7218 F       1  UNL1       -0.2040
     24 C         142.1317  140.8837  162.2180 C.2     1  UNL1        0.2252
     25 O         142.6495  139.5300  161.8316 O.2     1  UNL1       -0.2750
     26 N         142.9363  141.7625  163.1291 N.am    1  UNL1       -0.3010
     27 H         142.5964  142.6510  163.3827 H       1  UNL1        0.1497
     28 C         144.2588  141.2876  163.6540 C.3     1  UNL1        0.1089
     29 C         145.7397  141.0723  163.7559 C.3     1  UNL1        0.0274
     30 C         145.1743  141.8701  162.6183 C.3     1  UNL1        0.0274
     31 C         143.8025  140.5403  164.8718 C.ar    1  UNL1        0.1549
     32 N         144.0816  139.0720  164.9990 N.ar    1  UNL1       -0.2276
     33 C         143.6254  138.3245  166.2170 C.ar    1  UNL1        0.1019
     34 C         142.8901  139.0454  167.3076 C.ar    1  UNL1        0.0413
     35 C         142.6110  140.5137  167.1804 C.ar    1  UNL1        0.1019
     36 N         143.0672  141.2612  165.9626 N.ar    1  UNL1       -0.2276
     37 C         137.9701  143.9674  162.6334 C.3     1  UNL1        0.1050
     38 C         138.5528  144.5880  163.8683 C.3     1  UNL1        0.1486
     39 F         139.5185  145.5516  163.2448 F       1  UNL1       -0.2386
     40 C         138.8001  144.8740  165.3199 C.3     1  UNL1        0.0368
     41 C         137.7894  143.8399  164.9208 C.3     1  UNL1        0.0368
@<TRIPOS>BOND
     1     7     8    2
     2     8     9   am
     3     1     9    1
     4     1     2    1
     5     2     3    1
     6     3     4    1
     7     4    37    1
     8    37    38    1
     9    38    39    1
    10    38    40    1
    11    40    41    1
    12     4     5    1
    13     5     6    1
    14     6    24    1
    15    24    25    2
    16    24    26   am
    17    26    28    1
    18    28    31    1
    19    31    32   ar
    20    32    33   ar
    21    33    34   ar
    22    34    35   ar
    23    35    36   ar
    24    28    29    1
    25    29    30    1
    26     8    11    1
    27    11    12   ar
    28    12    13   ar
    29    13    16    1
    30    16    17   ar
    31    17    18   ar
    32    18    19   ar
    33    19    20    1
    34    19    21   ar
    35    21    22   ar
    36    22    23    1
    37    13    14   ar
    38    14    15   ar
    39     6     1    1
    40    30    28    1
    41    15    11   ar
    42    41    38    1
    43    36    31   ar
    44    22    16   ar
    45     9    10    1
    46    26    27    1
@<TRIPOS>MOLECULE
*****
 41 46 0 0 0
SMALL
GASTEIGER

@<TRIPOS>ATOM
      1 C         141.2678  143.7437  160.8107 C.3     1  UNL1        0.0832
      2 C         141.0616  145.1690  160.3915 C.3     1  UNL1        0.0374
      3 C         140.8972  145.5074  158.9395 C.3     1  UNL1        0.0739
      4 N         140.9391  144.4204  157.9067 N.3     1  UNL1       -0.2699
      5 C         141.1454  142.9951  158.3259 C.3     1  UNL1        0.0829
      6 C         141.3097  142.6567  159.7779 C.3     1  UNL1        0.1103
      7 O         143.9696  143.9388  162.0999 O.2     1  UNL1       -0.2684
      8 C         142.7830  143.5028  162.9074 C.2     1  UNL1        0.2669
      9 N         141.4321  143.4052  162.2628 N.am    1  UNL1       -0.3006
     10 H         140.6533  143.1190  162.7928 H       1  UNL1        0.1497
     11 C         142.9474  143.1644  164.3595 C.ar    1  UNL1        0.1761
     12 C         141.9777  142.3863  165.1987 C.ar    1  UNL1        0.0673
     13 C         142.5414  142.2856  166.5851 C.ar    1  UNL1        0.1792
     14 O         143.8594  143.0015  166.6027 O.2     1  UNL1       -0.3532
     15 N         144.1103  143.5446  165.2272 N.ar    1  UNL1       -0.0723
     16 C         141.8996  141.5910  167.7495 C.ar    1  UNL1        0.0648
     17 C         142.5080  140.3364  168.3025 C.ar    1  UNL1        0.0077
     18 C         141.8663  139.6418  169.4669 C.ar    1  UNL1        0.0299
     19 C         140.6162  140.2019  170.0782 C.ar    1  UNL1        0.1424
     20 F         139.9745  139.5073  171.2426 F       1  UNL1       -0.2041
     21 C         140.0080  141.4565  169.5252 C.ar    1  UNL1        0.0593
     22 C         140.6497  142.1510  168.3609 C.ar    1  UNL1        0.1453
     23 F         140.0414  143.4057  167.8078 F       1  UNL1       -0.2040
     24 C         141.5160  141.2313  160.1972 C.2     1  UNL1        0.2252
     25 O         140.4095  140.4825  160.8792 O.2     1  UNL1       -0.2750
     26 N         142.8286  140.5547  159.9344 N.am    1  UNL1       -0.3010
     27 H         143.5548  141.0461  159.4868 H       1  UNL1        0.1497
     28 C         143.0349  139.1293  160.3536 C.3     1  UNL1        0.1089
     29 C         143.0710  137.6313  160.2859 C.3     1  UNL1        0.0274
     30 C         142.6164  138.4251  159.0971 C.3     1  UNL1        0.0274
     31 C         143.5251  139.3385  161.7557 C.ar    1  UNL1        0.1549
     32 N         144.6128  140.3346  162.0292 N.ar    1  UNL1       -0.2276
     33 C         145.1030  140.5438  163.4314 C.ar    1  UNL1        0.1019
     34 C         144.5055  139.7570  164.5600 C.ar    1  UNL1        0.0413
     35 C         143.4178  138.7609  164.2865 C.ar    1  UNL1        0.1019
     36 N         142.9276  138.5517  162.8844 N.ar    1  UNL1       -0.2276
     37 C         140.7748  144.7589  156.4546 C.3     1  UNL1        0.1050
     38 C         139.4689  145.3010  155.9540 C.3     1  UNL1        0.1486
     39 F         138.5673  144.1459  156.2748 F       1  UNL1       -0.2386
     40 C         138.4760  146.2442  155.3419 C.3     1  UNL1        0.0368
     41 C         139.9170  146.6443  155.4592 C.3     1  UNL1        0.0368
@<TRIPOS>BOND
     1     7     8    2
     2     8     9   am
     3     1     9    1
     4     1     2    1
     5     2     3    1
     6     3     4    1
     7     4    37    1
     8    37    38    1
     9    38    39    1
    10    38    40    1
    11    40    41    1
    12     4     5    1
    13     5     6    1
    14     6    24    1
    15    24    25    2
    16    24    26   am
    17    26    28    1
    18    28    31    1
    19    31    32   ar
    20    32    33   ar
    21    33    34   ar
    22    34    35   ar
    23    35    36   ar
    24    28    29    1
    25    29    30    1
    26     8    11    1
    27    11    12   ar
    28    12    13   ar
    29    13    16    1
    30    16    17   ar
    31    17    18   ar
    32    18    19   ar
    33    19    20    1
    34    19    21   ar
    35    21    22   ar
    36    22    23    1
    37    13    14   ar
    38    14    15   ar
    39     6     1    1
    40    30    28    1
    41    15    11   ar
    42    41    38    1
    43    36    31   ar
    44    22    16   ar
    45     9    10    1
    46    26    27    1
@<TRIPOS>MOLECULE
*****
 41 46 0 0 0
SMALL
GASTEIGER

@<TRIPOS>ATOM
      1 C         142.0024  139.2317  160.9264 C.3     1  UNL1        0.0832
      2 C         142.5797  137.8853  160.6041 C.3     1  UNL1        0.0374
      3 C         142.7920  137.4830  159.1748 C.3     1  UNL1        0.0739
      4 N         142.4271  138.4271  158.0677 N.3     1  UNL1       -0.2699
      5 C         141.8498  139.7735  158.3900 C.3     1  UNL1        0.0829
      6 C         141.6375  140.1758  159.8193 C.3     1  UNL1        0.1103
      7 O         139.6498  138.1643  162.4514 O.2     1  UNL1       -0.2684
      8 C         140.6137  139.1004  163.1183 C.2     1  UNL1        0.2669
      9 N         141.7900  139.6341  162.3558 N.am    1  UNL1       -0.3006
     10 H         142.4227  140.2485  162.7934 H       1  UNL1        0.1497
     11 C         140.4013  139.5028  164.5476 C.ar    1  UNL1        0.1761
     12 C         141.3324  140.3372  165.3763 C.ar    1  UNL1        0.0673
     13 C         140.7271  140.4915  166.7401 C.ar    1  UNL1        0.1792
     14 O         139.4219  139.7523  166.7541 O.2     1  UNL1       -0.3532
     15 N         139.2206  139.1413  165.3991 N.ar    1  UNL1       -0.0723
     16 C         141.3224  141.2514  167.8881 C.ar    1  UNL1        0.0648
     17 C         140.6774  142.5197  168.3630 C.ar    1  UNL1        0.0077
     18 C         141.2727  143.2796  169.5111 C.ar    1  UNL1        0.0299
     19 C         142.5131  142.7713  170.1843 C.ar    1  UNL1        0.1424
     20 F         143.1084  143.5312  171.3323 F       1  UNL1       -0.2041
     21 C         143.1580  141.5031  169.7094 C.ar    1  UNL1        0.0593
     22 C         142.5627  140.7432  168.5613 C.ar    1  UNL1        0.1453
     23 F         143.2077  139.4749  168.0864 F       1  UNL1       -0.2040
     24 C         141.0602  141.5223  160.1417 C.2     1  UNL1        0.2252
     25 O         139.7779  141.6233  160.9133 O.2     1  UNL1       -0.2750
     26 N         141.7653  142.7677  159.6923 N.am    1  UNL1       -0.3010
     27 H         142.6069  142.7013  159.1858 H       1  UNL1        0.1497
     28 C         141.1881  144.1141  160.0146 C.3     1  UNL1        0.1089
     29 C         140.3606  145.3591  159.8915 C.3     1  UNL1        0.0274
     30 C         140.2669  144.2896  158.8438 C.3     1  UNL1        0.0274
     31 C         141.9087  144.4062  161.2973 C.ar    1  UNL1        0.1549
     32 N         141.1865  145.0786  162.4270 N.ar    1  UNL1       -0.2276
     33 C         141.9072  145.3708  163.7098 C.ar    1  UNL1        0.1019
     34 C         143.3500  144.9905  163.8627 C.ar    1  UNL1        0.0413
     35 C         144.0723  144.3181  162.7330 C.ar    1  UNL1        0.1019
     36 N         143.3517  144.0259  161.4503 N.ar    1  UNL1       -0.2276
     37 C         142.6394  138.0247  156.6383 C.3     1  UNL1        0.1050
     38 C         142.4814  136.5895  156.2318 C.3     1  UNL1        0.1486
     39 F         143.9102  136.1390  156.3060 F       1  UNL1       -0.2386
     40 C         141.8272  135.3108  155.7995 C.3     1  UNL1        0.0368
     41 C         140.9977  136.5417  156.0165 C.3     1  UNL1        0.0368
@<TRIPOS>BOND
     1     7     8    2
     2     8     9   am
     3     1     9    1
     4     1     2    1
     5     2     3    1
     6     3     4    1
     7     4    37    1
     8    37    38    1
     9    38    39    1
    10    38    40    1
    11    40    41    1
    12     4     5    1
    13     5     6    1
    14     6    24    1
    15    24    25    2
    16    24    26   am
    17    26    28    1
    18    28    31    1
    19    31    32   ar
    20    32    33   ar
    21    33    34   ar
    22    34    35   ar
    23    35    36   ar
    24    28    29    1
    25    29    30    1
    26     8    11    1
    27    11    12   ar
    28    12    13   ar
    29    13    16    1
    30    16    17   ar
    31    17    18   ar
    32    18    19   ar
    33    19    20    1
    34    19    21   ar
    35    21    22   ar
    36    22    23    1
    37    13    14   ar
    38    14    15   ar
    39     6     1    1
    40    30    28    1
    41    15    11   ar
    42    41    38    1
    43    36    31   ar
    44    22    16   ar
    45     9    10    1
    46    26    27    1
@<TRIPOS>MOLECULE
*****
 41 46 0 0 0
SMALL
GASTEIGER

@<TRIPOS>ATOM
      1 C         142.3652  141.7039  159.9775 C.3     1  UNL1        0.0832
      2 C         142.2657  143.0338  159.2910 C.3     1  UNL1        0.0374
      3 C         141.6981  144.2144  160.0217 C.3     1  UNL1        0.0739
      4 N         141.2300  144.0650  161.4389 N.3     1  UNL1       -0.2699
      5 C         141.3295  142.7351  162.1255 C.3     1  UNL1        0.0829
      6 C         141.8971  141.5545  161.3947 C.3     1  UNL1        0.1103
      7 O         140.6311  140.1195  158.1113 O.2     1  UNL1       -0.2684
      8 C         142.0658  139.7310  158.3137 C.2     1  UNL1        0.2669
      9 N         142.9328  140.5232  159.2468 N.am    1  UNL1       -0.3006
     10 H         143.8744  140.2683  159.3796 H       1  UNL1        0.1497
     11 C         142.6334  138.5504  157.5830 C.ar    1  UNL1        0.1761
     12 C         142.1299  137.1396  157.6615 C.ar    1  UNL1        0.0673
     13 C         142.9894  136.2905  156.7725 C.ar    1  UNL1        0.1792
     14 O         144.0241  137.1766  156.1446 O.2     1  UNL1       -0.3532
     15 N         143.8040  138.5733  156.6455 N.ar    1  UNL1       -0.0723
     16 C         142.8404  134.8145  156.5504 C.ar    1  UNL1        0.0648
     17 C         143.7359  133.8531  157.2741 C.ar    1  UNL1        0.0077
     18 C         143.5869  132.3771  157.0521 C.ar    1  UNL1        0.0299
     19 C         142.5425  131.8626  156.1063 C.ar    1  UNL1        0.1424
     20 F         142.3935  130.3867  155.8843 F       1  UNL1       -0.2041
     21 C         141.6471  132.8241  155.3827 C.ar    1  UNL1        0.0593
     22 C         141.7960  134.3000  155.6048 C.ar    1  UNL1        0.1453
     23 F         140.9006  135.2615  154.8811 F       1  UNL1       -0.2040
     24 C         141.9966  140.2245  162.0813 C.2     1  UNL1        0.2252
     25 O         143.2066  139.3625  161.8747 O.2     1  UNL1       -0.2750
     26 N         140.8860  139.7566  162.9743 N.am    1  UNL1       -0.3010
     27 H         140.0918  140.3223  163.1099 H       1  UNL1        0.1497
     28 C         140.9855  138.4266  163.6608 C.3     1  UNL1        0.1089
     29 C         140.8991  136.9459  163.8846 C.3     1  UNL1        0.0274
     30 C         140.4850  137.5307  162.5668 C.3     1  UNL1        0.0274
     31 C         141.5204  138.8606  164.9932 C.ar    1  UNL1        0.1549
     32 N         142.8137  138.2962  165.5021 N.ar    1  UNL1       -0.2276
     33 C         143.3488  138.7302  166.8346 C.ar    1  UNL1        0.1019
     34 C         142.5905  139.7286  167.6582 C.ar    1  UNL1        0.0413
     35 C         141.2973  140.2930  167.1493 C.ar    1  UNL1        0.1019
     36 N         140.7622  139.8590  165.8169 N.ar    1  UNL1       -0.2276
     37 C         140.6623  145.2457  162.1697 C.3     1  UNL1        0.1050
     38 C         140.0749  145.0690  163.5385 C.3     1  UNL1        0.1486
     39 F         141.3040  145.2625  164.3763 F       1  UNL1       -0.2386
     40 C         139.0607  144.8252  164.6163 C.3     1  UNL1        0.0368
     41 C         138.6418  144.8142  163.1760 C.3     1  UNL1        0.0368
@<TRIPOS>BOND
     1     7     8    2
     2     8     9   am
     3     1     9    1
     4     1     2    1
     5     2     3    1
     6     3     4    1
     7     4    37    1
     8    37    38    1
     9    38    39    1
    10    38    40    1
    11    40    41    1
    12     4     5    1
    13     5     6    1
    14     6    24    1
    15    24    25    2
    16    24    26   am
    17    26    28    1
    18    28    31    1
    19    31    32   ar
    20    32    33   ar
    21    33    34   ar
    22    34    35   ar
    23    35    36   ar
    24    28    29    1
    25    29    30    1
    26     8    11    1
    27    11    12   ar
    28    12    13   ar
    29    13    16    1
    30    16    17   ar
    31    17    18   ar
    32    18    19   ar
    33    19    20    1
    34    19    21   ar
    35    21    22   ar
    36    22    23    1
    37    13    14   ar
    38    14    15   ar
    39     6     1    1
    40    30    28    1
    41    15    11   ar
    42    41    38    1
    43    36    31   ar
    44    22    16   ar
    45     9    10    1
    46    26    27    1
@<TRIPOS>MOLECULE
*****
 41 46 0 0 0
SMALL
GASTEIGER

@<TRIPOS>ATOM
      1 C         142.3336  143.5360  159.9156 C.3     1  UNL1        0.0832
      2 C         141.6372  144.8045  159.5209 C.3     1  UNL1        0.0374
      3 C         140.5507  145.3652  160.3898 C.3     1  UNL1        0.0739
      4 N         140.1605  144.6573  161.6534 N.3     1  UNL1       -0.2699
      5 C         140.8569  143.3888  162.0481 C.3     1  UNL1        0.0829
      6 C         141.9435  142.8281  161.1792 C.3     1  UNL1        0.1103
      7 O         141.7242  141.3069  158.0025 O.2     1  UNL1       -0.2684
      8 C         143.1155  141.8608  158.0901 C.2     1  UNL1        0.2669
      9 N         143.4202  142.9753  159.0466 N.am    1  UNL1       -0.3006
     10 H         144.3333  143.3388  159.1041 H       1  UNL1        0.1497
     11 C         144.2020  141.3000  157.2212 C.ar    1  UNL1        0.1761
     12 C         145.2672  142.0906  156.5208 C.ar    1  UNL1        0.0673
     13 C         146.1376  141.1295  155.7669 C.ar    1  UNL1        0.1792
     14 O         145.6104  139.7449  156.0012 O.2     1  UNL1       -0.3532
     15 N         144.4142  139.8503  156.9001 N.ar    1  UNL1       -0.0723
     16 C         147.3265  141.4897  154.9262 C.ar    1  UNL1        0.0648
     17 C         148.6726  141.6615  155.5652 C.ar    1  UNL1        0.0077
     18 C         149.8615  142.0217  154.7245 C.ar    1  UNL1        0.0299
     19 C         149.7042  142.2101  153.2447 C.ar    1  UNL1        0.1424
     20 F         150.8931  142.5703  152.4040 F       1  UNL1       -0.2041
     21 C         148.3581  142.0383  152.6057 C.ar    1  UNL1        0.0593
     22 C         147.1693  141.6781  153.4464 C.ar    1  UNL1        0.1453
     23 F         145.8231  141.5063  152.8074 F       1  UNL1       -0.2040
     24 C         142.6399  141.5595  161.5738 C.2     1  UNL1        0.2252
     25 O         143.7809  141.6017  162.5467 O.2     1  UNL1       -0.2750
     26 N         142.1954  140.2488  160.9956 N.am    1  UNL1       -0.3010
     27 H         141.4465  140.2211  160.3571 H       1  UNL1        0.1497
     28 C         142.8918  138.9802  161.3902 C.3     1  UNL1        0.1089
     29 C         143.9061  137.8753  161.4059 C.3     1  UNL1        0.0274
     30 C         144.0490  139.0108  160.4362 C.3     1  UNL1        0.0274
     31 C         141.9765  138.5092  162.4812 C.ar    1  UNL1        0.1549
     32 N         140.5729  138.0927  162.1550 N.ar    1  UNL1       -0.2276
     33 C         139.6575  137.6216  163.2460 C.ar    1  UNL1        0.1019
     34 C         140.1459  137.5669  164.6632 C.ar    1  UNL1        0.0413
     35 C         141.5495  137.9834  164.9894 C.ar    1  UNL1        0.1019
     36 N         142.4649  138.4545  163.8985 N.ar    1  UNL1       -0.2276
     37 C         139.0739  145.2180  162.5223 C.3     1  UNL1        0.1050
     38 C         138.2967  144.3115  163.4301 C.3     1  UNL1        0.1486
     39 F         137.5130  143.5349  162.4140 F       1  UNL1       -0.2386
     40 C         137.7917  143.6747  164.6908 C.3     1  UNL1        0.0368
     41 C         138.8106  144.7733  164.7616 C.3     1  UNL1        0.0368
@<TRIPOS>BOND
     1     7     8    2
     2     8     9   am
     3     1     9    1
     4     1     2    1
     5     2     3    1
     6     3     4    1
     7     4    37    1
     8    37    38    1
     9    38    39    1
    10    38    40    1
    11    40    41    1
    12     4     5    1
    13     5     6    1
    14     6    24    1
    15    24    25    2
    16    24    26   am
    17    26    28    1
    18    28    31    1
    19    31    32   ar
    20    32    33   ar
    21    33    34   ar
    22    34    35   ar
    23    35    36   ar
    24    28    29    1
    25    29    30    1
    26     8    11    1
    27    11    12   ar
    28    12    13   ar
    29    13    16    1
    30    16    17   ar
    31    17    18   ar
    32    18    19   ar
    33    19    20    1
    34    19    21   ar
    35    21    22   ar
    36    22    23    1
    37    13    14   ar
    38    14    15   ar
    39     6     1    1
    40    30    28    1
    41    15    11   ar
    42    41    38    1
    43    36    31   ar
    44    22    16   ar
    45     9    10    1
    46    26    27    1
