@<TRIPOS>MOLECULE
*****
 22 24 0 0 0
SMALL
GASTEIGER

@<TRIPOS>ATOM
      1 C         139.5643  141.1885  165.7300 C.ar    1  UNL1       -0.0158
      2 C         138.6577  140.1092  165.2171 C.ar    1  UNL1        0.0050
      3 S         137.8266  140.6889  164.1111 S.2     1  UNL1       -0.0915
      4 C         138.2196  142.1264  163.9405 C.ar    1  UNL1        0.0288
      5 C         137.7382  143.1941  163.0033 C.ar    1  UNL1        0.0065
      6 C         138.3309  144.5705  163.0667 C.ar    1  UNL1        0.0005
      7 C         139.4049  144.8793  164.0674 C.ar    1  UNL1        0.0000
      8 C         139.8862  143.8117  165.0045 C.ar    1  UNL1        0.0002
      9 C         139.2936  142.4352  164.9411 C.ar    1  UNL1        0.0025
     10 C         141.8539  140.3165  166.5948 C.3     1  UNL1        0.0095
     11 C         140.5659  141.0461  166.8376 C.3     1  UNL1        0.0463
     12 C         140.2796  141.6333  168.1878 C.ar    1  UNL1        0.0007
     13 C         140.6696  143.0504  168.4874 C.ar    1  UNL1       -0.0008
     14 C         140.3833  143.6377  169.8377 C.ar    1  UNL1        0.0204
     15 C         139.7071  142.8077  170.8884 C.ar    1  UNL1        0.0989
     16 N         139.3171  141.3906  170.5888 N.ar    1  UNL1       -0.2426
     17 C         139.6034  140.8034  169.2385 C.ar    1  UNL1        0.0949
     18 C         138.5934  138.6980  165.7215 C.3     1  UNL1        0.0499
     19 C         138.8353  137.5540  164.7821 C.3     1  UNL1        0.0774
     20 N         140.0275  137.5700  163.8719 N.3     1  UNL1       -0.2700
     21 C         141.3986  137.3220  164.4275 C.3     1  UNL1        0.0897
     22 C         139.8486  137.8341  162.4063 C.3     1  UNL1        0.0897
@<TRIPOS>BOND
     1    11    10    1
     2    11    12    1
     3    12    13   ar
     4    13    14   ar
     5    14    15   ar
     6    15    16   ar
     7    16    17   ar
     8    11     1    1
     9     1     2   ar
    10     2    18    1
    11    18    19    1
    12    19    20    1
    13    20    21    1
    14    20    22    1
    15     2     3   ar
    16     3     4   ar
    17     4     5   ar
    18     5     6   ar
    19     6     7   ar
    20     7     8   ar
    21     8     9   ar
    22    17    12   ar
    23     9     1   ar
    24     9     4   ar
@<TRIPOS>MOLECULE
*****
 22 24 0 0 0
SMALL
GASTEIGER

@<TRIPOS>ATOM
      1 C         140.7790  140.7902  165.1830 C.ar    1  UNL1       -0.0158
      2 C         139.9112  139.6352  164.7791 C.ar    1  UNL1        0.0050
      3 S         138.5605  140.1758  164.4142 S.2     1  UNL1       -0.0915
      4 C         138.5934  141.6648  164.5925 C.ar    1  UNL1        0.0288
      5 C         137.5519  142.7239  164.3836 C.ar    1  UNL1        0.0065
      6 C         137.8817  144.1628  164.6498 C.ar    1  UNL1        0.0005
      7 C         139.2528  144.5425  165.1250 C.ar    1  UNL1        0.0000
      8 C         140.2942  143.4834  165.3339 C.ar    1  UNL1        0.0002
      9 C         139.9645  142.0445  165.0677 C.ar    1  UNL1        0.0025
     10 C         143.2982  140.5153  164.6099 C.3     1  UNL1        0.0095
     11 C         142.2100  140.7057  165.6247 C.3     1  UNL1        0.0463
     12 C         142.5529  140.8115  167.0811 C.ar    1  UNL1        0.0007
     13 C         142.9149  142.1421  167.6716 C.ar    1  UNL1       -0.0008
     14 C         143.2579  142.2480  169.1280 C.ar    1  UNL1        0.0204
     15 C         143.2388  141.0232  169.9940 C.ar    1  UNL1        0.0989
     16 N         142.8768  139.6928  169.4035 N.ar    1  UNL1       -0.2426
     17 C         142.5339  139.5869  167.9470 C.ar    1  UNL1        0.0949
     18 C         140.3221  138.1930  164.7460 C.3     1  UNL1        0.0499
     19 C         139.9651  137.3383  163.5662 C.3     1  UNL1        0.0774
     20 N         140.3957  137.7447  162.1880 N.3     1  UNL1       -0.2700
     21 C         141.8548  137.8020  161.8445 C.3     1  UNL1        0.0897
     22 C         139.3674  138.0938  161.1533 C.3     1  UNL1        0.0897
@<TRIPOS>BOND
     1    11    10    1
     2    11    12    1
     3    12    13   ar
     4    13    14   ar
     5    14    15   ar
     6    15    16   ar
     7    16    17   ar
     8    11     1    1
     9     1     2   ar
    10     2    18    1
    11    18    19    1
    12    19    20    1
    13    20    21    1
    14    20    22    1
    15     2     3   ar
    16     3     4   ar
    17     4     5   ar
    18     5     6   ar
    19     6     7   ar
    20     7     8   ar
    21     8     9   ar
    22    17    12   ar
    23     9     1   ar
    24     9     4   ar
@<TRIPOS>MOLECULE
*****
 22 24 0 0 0
SMALL
GASTEIGER

@<TRIPOS>ATOM
      1 C         140.4199  141.1055  165.4882 C.ar    1  UNL1       -0.0158
      2 C         141.2813  140.7298  164.3191 C.ar    1  UNL1        0.0050
      3 S         140.9436  139.3216  163.9282 S.2     1  UNL1       -0.0915
      4 C         139.8736  138.8268  164.8558 C.ar    1  UNL1        0.0288
      5 C         139.1523  137.5149  164.9470 C.ar    1  UNL1        0.0065
      6 C         138.1072  137.3055  166.0024 C.ar    1  UNL1        0.0005
      7 C         137.7835  138.4080  166.9666 C.ar    1  UNL1        0.0000
      8 C         138.5048  139.7200  166.8753 C.ar    1  UNL1        0.0002
      9 C         139.5499  139.9294  165.8199 C.ar    1  UNL1        0.0025
     10 C         139.6747  143.5905  165.6290 C.3     1  UNL1        0.0095
     11 C         140.4272  142.4255  166.2007 C.3     1  UNL1        0.0463
     12 C         141.1868  142.5806  167.4847 C.ar    1  UNL1        0.0007
     13 C         140.4761  143.0294  168.7271 C.ar    1  UNL1       -0.0008
     14 C         141.2358  143.1846  170.0112 C.ar    1  UNL1        0.0204
     15 C         142.7062  142.8909  170.0529 C.ar    1  UNL1        0.0989
     16 N         143.4169  142.4422  168.8105 N.ar    1  UNL1       -0.2426
     17 C         142.6572  142.2870  167.5264 C.ar    1  UNL1        0.0949
     18 C         142.3012  141.6082  163.6571 C.3     1  UNL1        0.0499
     19 C         143.4467  140.9944  162.9081 C.3     1  UNL1        0.0774
     20 N         144.7309  140.6889  163.6206 N.3     1  UNL1       -0.2700
     21 C         145.8610  141.6747  163.5852 C.3     1  UNL1        0.0897
     22 C         144.8849  139.3978  164.3684 C.3     1  UNL1        0.0897
@<TRIPOS>BOND
     1    11    10    1
     2    11    12    1
     3    12    13   ar
     4    13    14   ar
     5    14    15   ar
     6    15    16   ar
     7    16    17   ar
     8    11     1    1
     9     1     2   ar
    10     2    18    1
    11    18    19    1
    12    19    20    1
    13    20    21    1
    14    20    22    1
    15     2     3   ar
    16     3     4   ar
    17     4     5   ar
    18     5     6   ar
    19     6     7   ar
    20     7     8   ar
    21     8     9   ar
    22    17    12   ar
    23     9     1   ar
    24     9     4   ar
@<TRIPOS>MOLECULE
*****
 22 24 0 0 0
SMALL
GASTEIGER

@<TRIPOS>ATOM
      1 C         140.0383  140.0380  165.6103 C.ar    1  UNL1       -0.0158
      2 C         139.5011  140.5999  164.3274 C.ar    1  UNL1        0.0050
      3 S         140.5997  140.5578  163.3070 S.2     1  UNL1       -0.0915
      4 C         141.8159  139.9700  163.9591 C.ar    1  UNL1        0.0288
      5 C         143.1944  139.6858  163.4406 C.ar    1  UNL1        0.0065
      6 C         144.2260  139.0804  164.3457 C.ar    1  UNL1        0.0005
      7 C         143.8791  138.7591  165.7692 C.ar    1  UNL1        0.0000
      8 C         142.5006  139.0433  166.2877 C.ar    1  UNL1        0.0002
      9 C         141.4690  139.6488  165.3827 C.ar    1  UNL1        0.0025
     10 C         138.1888  138.8665  167.0093 C.3     1  UNL1        0.0095
     11 C         139.2784  139.8912  166.8952 C.3     1  UNL1        0.0463
     12 C         139.6080  140.7690  168.0659 C.ar    1  UNL1        0.0007
     13 C         140.2963  142.0838  167.8474 C.ar    1  UNL1       -0.0008
     14 C         140.6259  142.9616  169.0182 C.ar    1  UNL1        0.0204
     15 C         140.2672  142.5246  170.4076 C.ar    1  UNL1        0.0989
     16 N         139.5789  141.2099  170.6262 N.ar    1  UNL1       -0.2426
     17 C         139.2493  140.3321  169.4554 C.ar    1  UNL1        0.0949
     18 C         138.1095  141.1135  164.1042 C.3     1  UNL1        0.0499
     19 C         137.7549  142.5157  164.5018 C.3     1  UNL1        0.0774
     20 N         138.5092  143.6740  163.9193 N.3     1  UNL1       -0.2700
     21 C         138.5742  143.8547  162.4316 C.3     1  UNL1        0.0897
     22 C         139.1986  144.6515  164.8243 C.3     1  UNL1        0.0897
@<TRIPOS>BOND
     1    11    10    1
     2    11    12    1
     3    12    13   ar
     4    13    14   ar
     5    14    15   ar
     6    15    16   ar
     7    16    17   ar
     8    11     1    1
     9     1     2   ar
    10     2    18    1
    11    18    19    1
    12    19    20    1
    13    20    21    1
    14    20    22    1
    15     2     3   ar
    16     3     4   ar
    17     4     5   ar
    18     5     6   ar
    19     6     7   ar
    20     7     8   ar
    21     8     9   ar
    22    17    12   ar
    23     9     1   ar
    24     9     4   ar
@<TRIPOS>MOLECULE
*****
 22 24 0 0 0
SMALL
GASTEIGER

@<TRIPOS>ATOM
      1 C         140.5242  140.6013  165.5060 C.ar    1  UNL1       -0.0158
      2 C         139.6879  139.5181  164.8918 C.ar    1  UNL1        0.0050
      3 S         138.4384  140.1475  164.3510 S.2     1  UNL1       -0.0915
      4 C         138.5023  141.6198  164.6311 C.ar    1  UNL1        0.0288
      5 C         137.5533  142.7412  164.3283 C.ar    1  UNL1        0.0065
      6 C         137.8934  144.1431  164.7394 C.ar    1  UNL1        0.0005
      7 C         139.1825  144.4235  165.4532 C.ar    1  UNL1        0.0000
      8 C         140.1315  143.3021  165.7559 C.ar    1  UNL1        0.0002
      9 C         139.7915  141.9002  165.3449 C.ar    1  UNL1        0.0025
     10 C         141.9344  139.9405  167.5856 C.3     1  UNL1        0.0095
     11 C         141.8588  140.4179  166.1655 C.3     1  UNL1        0.0463
     12 C         143.1179  140.7118  165.4052 C.ar    1  UNL1        0.0007
     13 C         143.5782  142.1294  165.2357 C.ar    1  UNL1       -0.0008
     14 C         144.8373  142.4234  164.4753 C.ar    1  UNL1        0.0204
     15 C         145.6362  141.2998  163.8844 C.ar    1  UNL1        0.0989
     16 N         145.1760  139.8822  164.0539 N.ar    1  UNL1       -0.2426
     17 C         143.9169  139.5882  164.8142 C.ar    1  UNL1        0.0949
     18 C         140.0395  138.0612  164.8292 C.3     1  UNL1        0.0499
     19 C         140.8626  137.5365  163.6903 C.3     1  UNL1        0.0774
     20 N         140.7685  138.1794  162.3383 N.3     1  UNL1       -0.2700
     21 C         139.5482  137.9698  161.4914 C.3     1  UNL1        0.0897
     22 C         141.8945  139.0320  161.8333 C.3     1  UNL1        0.0897
@<TRIPOS>BOND
     1    11    10    1
     2    11    12    1
     3    12    13   ar
     4    13    14   ar
     5    14    15   ar
     6    15    16   ar
     7    16    17   ar
     8    11     1    1
     9     1     2   ar
    10     2    18    1
    11    18    19    1
    12    19    20    1
    13    20    21    1
    14    20    22    1
    15     2     3   ar
    16     3     4   ar
    17     4     5   ar
    18     5     6   ar
    19     6     7   ar
    20     7     8   ar
    21     8     9   ar
    22    17    12   ar
    23     9     1   ar
    24     9     4   ar
@<TRIPOS>MOLECULE
*****
 22 24 0 0 0
SMALL
GASTEIGER

@<TRIPOS>ATOM
      1 C         140.2742  139.8863  166.6218 C.ar    1  UNL1       -0.0158
      2 C         141.5666  139.5485  165.9395 C.ar    1  UNL1        0.0050
      3 S         142.6624  139.6186  166.9615 S.2     1  UNL1       -0.0915
      4 C         142.0472  139.9997  168.2754 C.ar    1  UNL1        0.0288
      5 C         142.6404  140.2174  169.6357 C.ar    1  UNL1        0.0065
      6 C         141.7575  140.6007  170.7862 C.ar    1  UNL1        0.0005
      7 C         140.2815  140.7662  170.5763 C.ar    1  UNL1        0.0000
      8 C         139.6884  140.5484  169.2159 C.ar    1  UNL1        0.0002
      9 C         140.5712  140.1652  168.0654 C.ar    1  UNL1        0.0025
     10 C         137.9135  138.8635  166.2597 C.3     1  UNL1        0.0095
     11 C         138.9221  139.9365  165.9742 C.3     1  UNL1        0.0463
     12 C         138.5786  141.0595  165.0412 C.ar    1  UNL1        0.0007
     13 C         139.1672  142.4220  165.2587 C.ar    1  UNL1       -0.0008
     14 C         138.8237  143.5452  164.3257 C.ar    1  UNL1        0.0204
     15 C         137.8915  143.3058  163.1751 C.ar    1  UNL1        0.0989
     16 N         137.3029  141.9434  162.9576 N.ar    1  UNL1       -0.2426
     17 C         137.6464  140.8202  163.8906 C.ar    1  UNL1        0.0949
     18 C         141.7339  139.2015  164.4898 C.3     1  UNL1        0.0499
     19 C         141.2196  137.8928  163.9677 C.3     1  UNL1        0.0774
     20 N         140.3357  137.8639  162.7561 N.3     1  UNL1       -0.2700
     21 C         140.9215  138.0950  161.3947 C.3     1  UNL1        0.0897
     22 C         138.8660  137.6039  162.9059 C.3     1  UNL1        0.0897
@<TRIPOS>BOND
     1    11    10    1
     2    11    12    1
     3    12    13   ar
     4    13    14   ar
     5    14    15   ar
     6    15    16   ar
     7    16    17   ar
     8    11     1    1
     9     1     2   ar
    10     2    18    1
    11    18    19    1
    12    19    20    1
    13    20    21    1
    14    20    22    1
    15     2     3   ar
    16     3     4   ar
    17     4     5   ar
    18     5     6   ar
    19     6     7   ar
    20     7     8   ar
    21     8     9   ar
    22    17    12   ar
    23     9     1   ar
    24     9     4   ar
@<TRIPOS>MOLECULE
*****
 22 24 0 0 0
SMALL
GASTEIGER

@<TRIPOS>ATOM
      1 C         138.7133  140.0250  164.6446 C.ar    1  UNL1       -0.0158
      2 C         138.8450  139.2223  163.3843 C.ar    1  UNL1        0.0050
      3 S         138.6090  140.1413  162.2226 S.2     1  UNL1       -0.0915
      4 C         138.3313  141.5120  162.7648 C.ar    1  UNL1        0.0288
      5 C         138.0282  142.8163  162.0889 C.ar    1  UNL1        0.0065
      6 C         137.7894  144.0487  162.9099 C.ar    1  UNL1        0.0005
      7 C         137.8539  143.9769  164.4068 C.ar    1  UNL1        0.0000
      8 C         138.1571  142.6726  165.0827 C.ar    1  UNL1        0.0002
      9 C         138.3958  141.4402  164.2617 C.ar    1  UNL1        0.0025
     10 C         137.7989  138.6489  166.6497 C.3     1  UNL1        0.0095
     11 C         138.8713  139.5041  166.0423 C.3     1  UNL1        0.0463
     12 C         140.1015  139.8382  166.8327 C.ar    1  UNL1        0.0007
     13 C         139.9857  140.1967  168.2847 C.ar    1  UNL1       -0.0008
     14 C         141.2159  140.5308  169.0752 C.ar    1  UNL1        0.0204
     15 C         142.5620  140.5066  168.4137 C.ar    1  UNL1        0.0989
     16 N         142.6777  140.1482  166.9618 N.ar    1  UNL1       -0.2426
     17 C         141.4475  139.8140  166.1713 C.ar    1  UNL1        0.0949
     18 C         139.1579  137.7577  163.3005 C.3     1  UNL1        0.0499
     19 C         140.5777  137.2865  163.4108 C.3     1  UNL1        0.0774
     20 N         141.6401  137.8979  162.5461 N.3     1  UNL1       -0.2700
     21 C         142.9077  138.4092  163.1641 C.3     1  UNL1        0.0897
     22 C         141.4349  137.9979  161.0636 C.3     1  UNL1        0.0897
@<TRIPOS>BOND
     1    11    10    1
     2    11    12    1
     3    12    13   ar
     4    13    14   ar
     5    14    15   ar
     6    15    16   ar
     7    16    17   ar
     8    11     1    1
     9     1     2   ar
    10     2    18    1
    11    18    19    1
    12    19    20    1
    13    20    21    1
    14    20    22    1
    15     2     3   ar
    16     3     4   ar
    17     4     5   ar
    18     5     6   ar
    19     6     7   ar
    20     7     8   ar
    21     8     9   ar
    22    17    12   ar
    23     9     1   ar
    24     9     4   ar
@<TRIPOS>MOLECULE
*****
 22 24 0 0 0
SMALL
GASTEIGER

@<TRIPOS>ATOM
      1 C         139.4717  141.3599  164.6816 C.ar    1  UNL1       -0.0158
      2 C         138.4202  142.3415  164.2566 C.ar    1  UNL1        0.0050
      3 S         137.6114  141.7098  163.1627 S.2     1  UNL1       -0.0915
      4 C         138.1630  140.3377  162.9116 C.ar    1  UNL1        0.0288
      5 C         137.7669  139.2573  161.9494 C.ar    1  UNL1        0.0065
      6 C         138.5206  137.9606  161.9260 C.ar    1  UNL1        0.0005
      7 C         139.6704  137.7444  162.8648 C.ar    1  UNL1        0.0000
      8 C         140.0665  138.8248  163.8269 C.ar    1  UNL1        0.0002
      9 C         139.3128  140.1214  163.8504 C.ar    1  UNL1        0.0025
     10 C         141.8849  142.0237  165.3789 C.3     1  UNL1        0.0095
     11 C         140.5014  141.5783  165.7503 C.3     1  UNL1        0.0463
     12 C         140.1479  141.3513  167.1901 C.ar    1  UNL1        0.0007
     13 C         140.4527  142.4058  168.2125 C.ar    1  UNL1       -0.0008
     14 C         140.0991  142.1789  169.6525 C.ar    1  UNL1        0.0204
     15 C         139.4407  140.8975  170.0701 C.ar    1  UNL1        0.0989
     16 N         139.1358  139.8430  169.0478 N.ar    1  UNL1       -0.2426
     17 C         139.4894  140.0699  167.6078 C.ar    1  UNL1        0.0949
     18 C         138.2137  143.7140  164.8257 C.3     1  UNL1        0.0499
     19 C         139.3423  144.7020  164.8292 C.3     1  UNL1        0.0774
     20 N         140.0298  145.0599  163.5449 N.3     1  UNL1       -0.2700
     21 C         141.5252  145.1691  163.4999 C.3     1  UNL1        0.0897
     22 C         139.2220  145.3086  162.3058 C.3     1  UNL1        0.0897
@<TRIPOS>BOND
     1    11    10    1
     2    11    12    1
     3    12    13   ar
     4    13    14   ar
     5    14    15   ar
     6    15    16   ar
     7    16    17   ar
     8    11     1    1
     9     1     2   ar
    10     2    18    1
    11    18    19    1
    12    19    20    1
    13    20    21    1
    14    20    22    1
    15     2     3   ar
    16     3     4   ar
    17     4     5   ar
    18     5     6   ar
    19     6     7   ar
    20     7     8   ar
    21     8     9   ar
    22    17    12   ar
    23     9     1   ar
    24     9     4   ar
@<TRIPOS>MOLECULE
*****
 22 24 0 0 0
SMALL
GASTEIGER

@<TRIPOS>ATOM
      1 C         140.0841  142.3264  165.8545 C.ar    1  UNL1       -0.0158
      2 C         139.7345  140.9974  165.2531 C.ar    1  UNL1        0.0050
      3 S         139.5793  140.0093  166.3709 S.2     1  UNL1       -0.0915
      4 C         139.8331  140.7275  167.6631 C.ar    1  UNL1        0.0288
      5 C         139.8204  140.2625  169.0891 C.ar    1  UNL1        0.0065
      6 C         140.1196  141.2296  170.1960 C.ar    1  UNL1        0.0005
      7 C         140.4316  142.6616  169.8768 C.ar    1  UNL1        0.0000
      8 C         140.4443  143.1266  168.4508 C.ar    1  UNL1        0.0002
      9 C         140.1450  142.1596  167.3439 C.ar    1  UNL1        0.0025
     10 C         139.2921  144.6822  165.0974 C.3     1  UNL1        0.0095
     11 C         140.3296  143.5988  165.0991 C.3     1  UNL1        0.0463
     12 C         141.6126  143.7879  164.3454 C.ar    1  UNL1        0.0007
     13 C         142.8997  143.2671  164.9129 C.ar    1  UNL1       -0.0008
     14 C         144.1828  143.4562  164.1592 C.ar    1  UNL1        0.0204
     15 C         144.1787  144.1661  162.8379 C.ar    1  UNL1        0.0989
     16 N         142.8916  144.6870  162.2703 N.ar    1  UNL1       -0.2426
     17 C         141.6086  144.4979  163.0240 C.ar    1  UNL1        0.0949
     18 C         139.5690  140.7076  163.7907 C.3     1  UNL1        0.0499
     19 C         138.3509  139.9806  163.3033 C.3     1  UNL1        0.0774
     20 N         138.4828  138.6079  162.7130 N.3     1  UNL1       -0.2700
     21 C         139.4979  137.6497  163.2621 C.3     1  UNL1        0.0897
     22 C         137.5996  138.1935  161.5736 C.3     1  UNL1        0.0897
@<TRIPOS>BOND
     1    11    10    1
     2    11    12    1
     3    12    13   ar
     4    13    14   ar
     5    14    15   ar
     6    15    16   ar
     7    16    17   ar
     8    11     1    1
     9     1     2   ar
    10     2    18    1
    11    18    19    1
    12    19    20    1
    13    20    21    1
    14    20    22    1
    15     2     3   ar
    16     3     4   ar
    17     4     5   ar
    18     5     6   ar
    19     6     7   ar
    20     7     8   ar
    21     8     9   ar
    22    17    12   ar
    23     9     1   ar
    24     9     4   ar
