@<TRIPOS>MOLECULE
*****
 30 32 0 0 0
SMALL
GASTEIGER

@<TRIPOS>ATOM
      1 S         141.5300  144.6237  162.1299 S.O2    1  UNL1        0.0768
      2 O         142.2731  143.3729  161.7652 O.2     1  UNL1       -0.1498
      3 O         140.7868  145.8745  162.4947 O.2     1  UNL1       -0.1498
      4 O         139.5141  144.4216  159.9173 O.2     1  UNL1       -0.2509
      5 C         140.8299  145.0992  159.6735 C.2     1  UNL1        0.3231
      6 N         141.1378  145.6759  158.3235 N.am    1  UNL1       -0.2671
      7 N         141.8378  145.2003  160.7799 N.am    1  UNL1       -0.1690
      8 H         142.0014  146.1206  158.1635 H       1  UNL1        0.1565
      9 H         142.7014  145.6451  160.6199 H       1  UNL1        0.1781
     10 C         140.1298  145.5748  157.2171 C.ar    1  UNL1        0.0516
     11 C         139.5948  146.8198  156.5739 C.ar    1  UNL1        0.0147
     12 C         138.5869  146.7187  155.4677 C.ar    1  UNL1        0.0013
     13 C         138.1140  145.3726  155.0046 C.ar    1  UNL1        0.0001
     14 C         138.6491  144.1276  155.6478 C.ar    1  UNL1        0.0013
     15 C         139.6569  144.2287  156.7540 C.ar    1  UNL1        0.0147
     16 C         141.2221  144.0471  163.4800 C.ar    1  UNL1        0.1255
     17 C         139.9147  144.3562  164.1471 C.ar    1  UNL1        0.0233
     18 C         139.6068  143.7795  165.4973 C.ar    1  UNL1        0.0383
     19 C         140.6064  142.8938  166.1801 C.ar    1  UNL1        0.1387
     20 C         141.9138  142.5847  165.5130 C.ar    1  UNL1        0.0383
     21 C         142.2217  143.1613  164.1629 C.ar    1  UNL1        0.0233
     22 O         140.2985  142.3172  167.5302 O.3     1  UNL1       -0.4740
     23 C         140.0254  140.8493  167.6743 C.3     1  UNL1        0.2226
     24 C         139.1819  140.1399  166.6567 C.3     1  UNL1        0.1200
     25 N         139.8164  139.1798  165.6946 N.3     1  UNL1       -0.2696
     26 C         141.2889  138.9042  165.7713 C.3     1  UNL1        0.0722
     27 C         141.9233  137.9441  164.8092 C.3     1  UNL1        0.0174
     28 C         141.0852  137.2595  163.7704 C.3     1  UNL1        0.0029
     29 C         139.6128  137.5351  163.6937 C.3     1  UNL1        0.0174
     30 C         138.9783  138.4952  164.6558 C.3     1  UNL1        0.0722
@<TRIPOS>BOND
     1     4     5    2
     2     5     6   am
     3     6    10    1
     4    10    11   ar
     5    11    12   ar
     6    12    13   ar
     7    13    14   ar
     8    14    15   ar
     9     5     7   am
    10     7     1    1
    11     1     2    2
    12     1     3    2
    13     1    16    1
    14    16    17   ar
    15    17    18   ar
    16    18    19   ar
    17    19    22    1
    18    22    23    1
    19    23    24    1
    20    24    25    1
    21    25    26    1
    22    26    27    1
    23    27    28    1
    24    28    29    1
    25    29    30    1
    26    19    20   ar
    27    20    21   ar
    28    15    10   ar
    29    21    16   ar
    30    30    25    1
    31     6     8    1
    32     7     9    1
@<TRIPOS>MOLECULE
*****
 30 32 0 0 0
SMALL
GASTEIGER

@<TRIPOS>ATOM
      1 S         138.3603  139.0491  164.6572 S.O2    1  UNL1        0.0768
      2 O         137.7925  140.4375  164.6666 O.2     1  UNL1       -0.1498
      3 O         138.9281  137.6608  164.6479 O.2     1  UNL1       -0.1498
      4 O         140.3440  140.4639  166.4076 O.2     1  UNL1       -0.2509
      5 C         139.2164  139.6909  167.0248 C.2     1  UNL1        0.3231
      6 N         139.0806  139.6253  168.5172 N.am    1  UNL1       -0.2671
      7 N         138.2245  138.9835  166.1496 N.am    1  UNL1       -0.1690
      8 H         138.3405  139.1180  168.9223 H       1  UNL1        0.1565
      9 H         137.4844  138.4762  166.5547 H       1  UNL1        0.1781
     10 C         140.0724  140.3327  169.3924 C.ar    1  UNL1        0.0516
     11 C         139.7797  141.7168  169.8909 C.ar    1  UNL1        0.0147
     12 C         140.7715  142.4242  170.7660 C.ar    1  UNL1        0.0013
     13 C         142.0561  141.7474  171.1427 C.ar    1  UNL1        0.0001
     14 C         142.3488  140.3633  170.6442 C.ar    1  UNL1        0.0013
     15 C         141.3570  139.6560  169.7690 C.ar    1  UNL1        0.0147
     16 C         138.4961  139.1147  163.1649 C.ar    1  UNL1        0.1255
     17 C         138.0344  140.3337  162.4226 C.ar    1  UNL1        0.0233
     18 C         138.1702  140.3993  160.9302 C.ar    1  UNL1        0.0383
     19 C         138.7677  139.2459  160.1801 C.ar    1  UNL1        0.1387
     20 C         139.2294  138.0269  160.9223 C.ar    1  UNL1        0.0383
     21 C         139.0936  137.9613  162.4147 C.ar    1  UNL1        0.0233
     22 O         138.9035  139.3115  158.6877 O.3     1  UNL1       -0.4740
     23 C         140.2500  139.1419  158.0489 C.3     1  UNL1        0.2226
     24 C         141.4189  139.9446  158.5385 C.3     1  UNL1        0.1200
     25 N         142.1503  139.5246  159.7789 N.3     1  UNL1       -0.2696
     26 C         142.1387  140.4074  160.9916 C.3     1  UNL1        0.0722
     27 C         142.8701  139.9874  162.2320 C.3     1  UNL1        0.0174
     28 C         143.6131  138.6846  162.2597 C.3     1  UNL1        0.0029
     29 C         143.6247  137.8019  161.0470 C.3     1  UNL1        0.0174
     30 C         142.8933  138.2219  159.8066 C.3     1  UNL1        0.0722
@<TRIPOS>BOND
     1     4     5    2
     2     5     6   am
     3     6    10    1
     4    10    11   ar
     5    11    12   ar
     6    12    13   ar
     7    13    14   ar
     8    14    15   ar
     9     5     7   am
    10     7     1    1
    11     1     2    2
    12     1     3    2
    13     1    16    1
    14    16    17   ar
    15    17    18   ar
    16    18    19   ar
    17    19    22    1
    18    22    23    1
    19    23    24    1
    20    24    25    1
    21    25    26    1
    22    26    27    1
    23    27    28    1
    24    28    29    1
    25    29    30    1
    26    19    20   ar
    27    20    21   ar
    28    15    10   ar
    29    21    16   ar
    30    30    25    1
    31     6     8    1
    32     7     9    1
@<TRIPOS>MOLECULE
*****
 30 32 0 0 0
SMALL
GASTEIGER

@<TRIPOS>ATOM
      1 S         143.0901  138.7233  164.3848 S.O2    1  UNL1        0.0768
      2 O         144.2473  139.6750  164.3136 O.2     1  UNL1       -0.1498
      3 O         141.9329  137.7717  164.4561 O.2     1  UNL1       -0.1498
      4 O         141.4835  140.7695  165.8789 O.2     1  UNL1       -0.2509
      5 C         142.3401  139.7939  166.6302 C.2     1  UNL1        0.3231
      6 N         142.3933  139.8413  168.1284 N.am    1  UNL1       -0.2671
      7 N         143.1433  138.7707  165.8831 N.am    1  UNL1       -0.1690
      8 H         142.9555  139.2009  168.6215 H       1  UNL1        0.1565
      9 H         143.7055  138.1304  166.3762 H       1  UNL1        0.1781
     10 C         141.5900  140.8644  168.8755 C.ar    1  UNL1        0.0516
     11 C         140.2260  140.5154  169.3927 C.ar    1  UNL1        0.0147
     12 C         139.4228  141.5385  170.1397 C.ar    1  UNL1        0.0013
     13 C         139.9836  142.9106  170.3695 C.ar    1  UNL1        0.0001
     14 C         141.3477  143.2596  169.8523 C.ar    1  UNL1        0.0013
     15 C         142.1509  142.2365  169.1053 C.ar    1  UNL1        0.0147
     16 C         143.0368  138.6759  162.8865 C.ar    1  UNL1        0.1255
     17 C         144.1871  139.1988  162.0782 C.ar    1  UNL1        0.0233
     18 C         144.1338  139.1513  160.5799 C.ar    1  UNL1        0.0383
     19 C         142.9302  138.5811  159.8899 C.ar    1  UNL1        0.1387
     20 C         141.7799  138.0582  160.6982 C.ar    1  UNL1        0.0383
     21 C         141.8332  138.1056  162.1965 C.ar    1  UNL1        0.0233
     22 O         142.8770  138.5336  158.3917 O.3     1  UNL1       -0.4740
     23 C         142.2678  137.3503  157.6999 C.3     1  UNL1        0.2226
     24 C         143.0678  136.5749  156.6954 C.3     1  UNL1        0.1200
     25 N         142.7899  135.1168  156.4797 N.3     1  UNL1       -0.2696
     26 C         141.7538  134.6903  155.4822 C.3     1  UNL1        0.0722
     27 C         141.4759  133.2321  155.2664 C.3     1  UNL1        0.0174
     28 C         142.2340  132.2005  156.0481 C.3     1  UNL1        0.0029
     29 C         143.2700  132.6269  157.0455 C.3     1  UNL1        0.0174
     30 C         143.5479  134.0851  157.2613 C.3     1  UNL1        0.0722
@<TRIPOS>BOND
     1     4     5    2
     2     5     6   am
     3     6    10    1
     4    10    11   ar
     5    11    12   ar
     6    12    13   ar
     7    13    14   ar
     8    14    15   ar
     9     5     7   am
    10     7     1    1
    11     1     2    2
    12     1     3    2
    13     1    16    1
    14    16    17   ar
    15    17    18   ar
    16    18    19   ar
    17    19    22    1
    18    22    23    1
    19    23    24    1
    20    24    25    1
    21    25    26    1
    22    26    27    1
    23    27    28    1
    24    28    29    1
    25    29    30    1
    26    19    20   ar
    27    20    21   ar
    28    15    10   ar
    29    21    16   ar
    30    30    25    1
    31     6     8    1
    32     7     9    1
@<TRIPOS>MOLECULE
*****
 30 32 0 0 0
SMALL
GASTEIGER

@<TRIPOS>ATOM
      1 S         138.8452  138.8570  161.7718 S.O2    1  UNL1        0.0768
      2 O         140.2153  139.4658  161.8189 O.2     1  UNL1       -0.1498
      3 O         137.4752  138.2482  161.7247 O.2     1  UNL1       -0.1498
      4 O         137.8930  141.1698  160.1152 O.2     1  UNL1       -0.2509
      5 C         138.4498  139.9477  159.4471 C.2     1  UNL1        0.3231
      6 N         138.5305  139.8819  157.9508 N.am    1  UNL1       -0.2671
      7 N         138.9259  138.7912  160.2754 N.am    1  UNL1       -0.1690
      8 H         138.8960  139.0798  157.5123 H       1  UNL1        0.1565
      9 H         139.2914  137.9891  159.8370 H       1  UNL1        0.1781
     10 C         138.0544  141.0384  157.1224 C.ar    1  UNL1        0.0516
     11 C         138.9355  142.2371  156.9314 C.ar    1  UNL1        0.0147
     12 C         138.4594  143.3935  156.1031 C.ar    1  UNL1        0.0013
     13 C         137.1022  143.3511  155.4658 C.ar    1  UNL1        0.0001
     14 C         136.2210  142.1523  155.6569 C.ar    1  UNL1        0.0013
     15 C         136.6972  140.9960  156.4852 C.ar    1  UNL1        0.0147
     16 C         138.7645  138.9227  163.2681 C.ar    1  UNL1        0.1255
     17 C         138.5122  140.2354  163.9487 C.ar    1  UNL1        0.0233
     18 C         138.4315  140.3011  165.4451 C.ar    1  UNL1        0.0383
     19 C         138.6031  139.0541  166.2609 C.ar    1  UNL1        0.1387
     20 C         138.8554  137.7414  165.5804 C.ar    1  UNL1        0.0383
     21 C         138.9361  137.6757  164.0840 C.ar    1  UNL1        0.0233
     22 O         138.5224  139.1199  167.7573 O.3     1  UNL1       -0.4740
     23 C         139.3437  140.1249  168.5093 C.3     1  UNL1        0.2226
     24 C         140.8321  139.9610  168.5988 C.3     1  UNL1        0.1200
     25 N         141.6944  140.2805  167.4137 N.3     1  UNL1       -0.2696
     26 C         141.7792  141.6894  166.9060 C.3     1  UNL1        0.0722
     27 C         142.6415  142.0089  165.7209 C.3     1  UNL1        0.0174
     28 C         143.4190  140.9195  165.0436 C.3     1  UNL1        0.0029
     29 C         143.3342  139.5106  165.5513 C.3     1  UNL1        0.0174
     30 C         142.4719  139.1911  166.7364 C.3     1  UNL1        0.0722
@<TRIPOS>BOND
     1     4     5    2
     2     5     6   am
     3     6    10    1
     4    10    11   ar
     5    11    12   ar
     6    12    13   ar
     7    13    14   ar
     8    14    15   ar
     9     5     7   am
    10     7     1    1
    11     1     2    2
    12     1     3    2
    13     1    16    1
    14    16    17   ar
    15    17    18   ar
    16    18    19   ar
    17    19    22    1
    18    22    23    1
    19    23    24    1
    20    24    25    1
    21    25    26    1
    22    26    27    1
    23    27    28    1
    24    28    29    1
    25    29    30    1
    26    19    20   ar
    27    20    21   ar
    28    15    10   ar
    29    21    16   ar
    30    30    25    1
    31     6     8    1
    32     7     9    1
@<TRIPOS>MOLECULE
*****
 30 32 0 0 0
SMALL
GASTEIGER

@<TRIPOS>ATOM
      1 S         141.1336  143.9373  162.8441 S.O2    1  UNL1        0.0768
      2 O         139.8411  144.6931  162.9344 O.2     1  UNL1       -0.1498
      3 O         142.4261  143.1816  162.7538 O.2     1  UNL1       -0.1498
      4 O         140.4322  143.6584  159.9406 O.2     1  UNL1       -0.2509
      5 C         141.2969  144.7958  160.3974 C.2     1  UNL1        0.3231
      6 N         141.8109  145.7937  159.4024 N.am    1  UNL1       -0.2671
      7 N         141.6476  144.9352  161.8492 N.am    1  UNL1       -0.1690
      8 H         142.3785  146.5402  159.7022 H       1  UNL1        0.1565
      9 H         142.2152  145.6817  162.1490 H       1  UNL1        0.1781
     10 C         141.4602  145.6543  157.9506 C.ar    1  UNL1        0.0516
     11 C         142.3886  144.9306  157.0209 C.ar    1  UNL1        0.0147
     12 C         142.0379  144.7912  155.5692 C.ar    1  UNL1        0.0013
     13 C         140.7587  145.3755  155.0472 C.ar    1  UNL1        0.0001
     14 C         139.8303  146.0991  155.9769 C.ar    1  UNL1        0.0013
     15 C         140.1811  146.2385  157.4286 C.ar    1  UNL1        0.0147
     16 C         140.6196  142.9395  163.8390 C.ar    1  UNL1        0.1255
     17 C         139.1431  142.7201  163.9870 C.ar    1  UNL1        0.0233
     18 C         138.6291  141.7222  164.9820 C.ar    1  UNL1        0.0383
     19 C         139.5915  140.9436  165.8290 C.ar    1  UNL1        0.1387
     20 C         141.0680  141.1629  165.6810 C.ar    1  UNL1        0.0383
     21 C         141.5821  142.1608  164.6861 C.ar    1  UNL1        0.0233
     22 O         139.0775  139.9457  166.8239 O.3     1  UNL1       -0.4740
     23 C         138.0484  138.9359  166.4102 C.3     1  UNL1        0.2226
     24 C         138.4734  137.6640  165.7381 C.3     1  UNL1        0.1200
     25 N         139.3598  137.7145  164.5291 N.3     1  UNL1       -0.2696
     26 C         138.7610  137.9094  163.1677 C.3     1  UNL1        0.0722
     27 C         139.6475  137.9599  161.9587 C.3     1  UNL1        0.0174
     28 C         141.1328  137.8156  162.1112 C.3     1  UNL1        0.0029
     29 C         141.7315  137.6208  163.4726 C.3     1  UNL1        0.0174
     30 C         140.8451  137.5702  164.6816 C.3     1  UNL1        0.0722
@<TRIPOS>BOND
     1     4     5    2
     2     5     6   am
     3     6    10    1
     4    10    11   ar
     5    11    12   ar
     6    12    13   ar
     7    13    14   ar
     8    14    15   ar
     9     5     7   am
    10     7     1    1
    11     1     2    2
    12     1     3    2
    13     1    16    1
    14    16    17   ar
    15    17    18   ar
    16    18    19   ar
    17    19    22    1
    18    22    23    1
    19    23    24    1
    20    24    25    1
    21    25    26    1
    22    26    27    1
    23    27    28    1
    24    28    29    1
    25    29    30    1
    26    19    20   ar
    27    20    21   ar
    28    15    10   ar
    29    21    16   ar
    30    30    25    1
    31     6     8    1
    32     7     9    1
@<TRIPOS>MOLECULE
*****
 30 32 0 0 0
SMALL
GASTEIGER

@<TRIPOS>ATOM
      1 S         142.1166  140.8540  169.3314 S.O2    1  UNL1        0.0768
      2 O         143.3044  141.2389  168.5002 O.2     1  UNL1       -0.1498
      3 O         140.9287  140.4691  170.1625 O.2     1  UNL1       -0.1498
      4 O         143.0852  138.0503  169.7798 O.2     1  UNL1       -0.2509
      5 C         143.5079  139.1478  170.7109 C.2     1  UNL1        0.3231
      6 N         144.4149  138.8434  171.8661 N.am    1  UNL1       -0.2671
      7 N         143.0236  140.5497  170.4866 N.am    1  UNL1       -0.1690
      8 H         144.6924  139.5638  172.4772 H       1  UNL1        0.1565
      9 H         143.3010  141.2700  171.0977 H       1  UNL1        0.1781
     10 C         144.8993  137.4416  172.0904 C.ar    1  UNL1        0.0516
     11 C         144.2557  136.2999  171.3608 C.ar    1  UNL1        0.0147
     12 C         144.7400  134.8982  171.5850 C.ar    1  UNL1        0.0013
     13 C         145.8680  134.6380  172.5390 C.ar    1  UNL1        0.0001
     14 C         146.5116  135.7796  173.2686 C.ar    1  UNL1        0.0013
     15 C         146.0273  137.1814  173.0443 C.ar    1  UNL1        0.0147
     16 C         141.2095  141.1583  168.1761 C.ar    1  UNL1        0.1255
     17 C         140.5207  140.0417  167.4489 C.ar    1  UNL1        0.0233
     18 C         139.6137  140.3461  166.2936 C.ar    1  UNL1        0.0383
     19 C         139.3955  141.7670  165.8655 C.ar    1  UNL1        0.1387
     20 C         140.0843  142.8836  166.5927 C.ar    1  UNL1        0.0383
     21 C         140.9913  142.5793  167.7479 C.ar    1  UNL1        0.0233
     22 O         138.4885  142.0714  164.7103 O.3     1  UNL1       -0.4740
     23 C         138.9050  143.0716  163.6730 C.3     1  UNL1        0.2226
     24 C         140.1459  142.8395  162.8628 C.3     1  UNL1        0.1200
     25 N         141.4803  143.2715  163.3943 N.3     1  UNL1       -0.2696
     26 C         141.8577  144.7233  163.3833 C.3     1  UNL1        0.0722
     27 C         143.1922  145.1554  163.9149 C.3     1  UNL1        0.0174
     28 C         144.1493  144.1357  164.4574 C.3     1  UNL1        0.0029
     29 C         143.7719  142.6840  164.4684 C.3     1  UNL1        0.0174
     30 C         142.4374  142.2519  163.9368 C.3     1  UNL1        0.0722
@<TRIPOS>BOND
     1     4     5    2
     2     5     6   am
     3     6    10    1
     4    10    11   ar
     5    11    12   ar
     6    12    13   ar
     7    13    14   ar
     8    14    15   ar
     9     5     7   am
    10     7     1    1
    11     1     2    2
    12     1     3    2
    13     1    16    1
    14    16    17   ar
    15    17    18   ar
    16    18    19   ar
    17    19    22    1
    18    22    23    1
    19    23    24    1
    20    24    25    1
    21    25    26    1
    22    26    27    1
    23    27    28    1
    24    28    29    1
    25    29    30    1
    26    19    20   ar
    27    20    21   ar
    28    15    10   ar
    29    21    16   ar
    30    30    25    1
    31     6     8    1
    32     7     9    1
@<TRIPOS>MOLECULE
*****
 30 32 0 0 0
SMALL
GASTEIGER

@<TRIPOS>ATOM
      1 S         141.4710  144.3777  161.9750 S.O2    1  UNL1        0.0768
      2 O         142.3556  143.2453  161.5448 O.2     1  UNL1       -0.1498
      3 O         140.5864  145.5101  162.4051 O.2     1  UNL1       -0.1498
      4 O         140.2023  144.2123  159.2614 O.2     1  UNL1       -0.2509
      5 C         141.3631  145.1341  159.4918 C.2     1  UNL1        0.3231
      6 N         141.8895  145.9732  158.3654 N.am    1  UNL1       -0.2671
      7 N         141.9974  145.2167  160.8486 N.am    1  UNL1       -0.1690
      8 H         142.6513  146.5781  158.5166 H       1  UNL1        0.1565
      9 H         142.7592  145.8217  160.9998 H       1  UNL1        0.1781
     10 C         141.2552  145.8905  157.0086 C.ar    1  UNL1        0.0516
     11 C         139.9058  146.5018  156.7730 C.ar    1  UNL1        0.0147
     12 C         139.2716  146.4191  155.4162 C.ar    1  UNL1        0.0013
     13 C         139.9867  145.7252  154.2951 C.ar    1  UNL1        0.0001
     14 C         141.3360  145.1139  154.5306 C.ar    1  UNL1        0.0013
     15 C         141.9703  145.1966  155.8874 C.ar    1  UNL1        0.0147
     16 C         140.9445  143.5386  163.1014 C.ar    1  UNL1        0.1255
     17 C         140.7972  142.0561  162.9269 C.ar    1  UNL1        0.0233
     18 C         140.2707  141.2170  164.0534 C.ar    1  UNL1        0.0383
     19 C         139.8917  141.8604  165.3542 C.ar    1  UNL1        0.1387
     20 C         140.0390  143.3429  165.5287 C.ar    1  UNL1        0.0383
     21 C         140.5654  144.1820  164.4023 C.ar    1  UNL1        0.0233
     22 O         139.3652  141.0214  166.4806 O.3     1  UNL1       -0.4740
     23 C         140.3180  140.3037  167.3901 C.3     1  UNL1        0.2226
     24 C         141.7207  140.8088  167.5561 C.3     1  UNL1        0.1200
     25 N         142.7147  140.6410  166.4453 N.3     1  UNL1       -0.2696
     26 C         143.0355  139.2706  165.9265 C.3     1  UNL1        0.0722
     27 C         144.0295  139.1028  164.8157 C.3     1  UNL1        0.0174
     28 C         144.7025  140.3056  164.2236 C.3     1  UNL1        0.0029
     29 C         144.3817  141.6759  164.7423 C.3     1  UNL1        0.0174
     30 C         143.3877  141.8436  165.8532 C.3     1  UNL1        0.0722
@<TRIPOS>BOND
     1     4     5    2
     2     5     6   am
     3     6    10    1
     4    10    11   ar
     5    11    12   ar
     6    12    13   ar
     7    13    14   ar
     8    14    15   ar
     9     5     7   am
    10     7     1    1
    11     1     2    2
    12     1     3    2
    13     1    16    1
    14    16    17   ar
    15    17    18   ar
    16    18    19   ar
    17    19    22    1
    18    22    23    1
    19    23    24    1
    20    24    25    1
    21    25    26    1
    22    26    27    1
    23    27    28    1
    24    28    29    1
    25    29    30    1
    26    19    20   ar
    27    20    21   ar
    28    15    10   ar
    29    21    16   ar
    30    30    25    1
    31     6     8    1
    32     7     9    1
@<TRIPOS>MOLECULE
*****
 30 32 0 0 0
SMALL
GASTEIGER

@<TRIPOS>ATOM
      1 S         140.7550  144.3366  161.2680 S.O2    1  UNL1        0.0768
      2 O         139.5841  145.2726  161.3232 O.2     1  UNL1       -0.1498
      3 O         141.9258  143.4007  161.2129 O.2     1  UNL1       -0.1498
      4 O         140.2279  144.1360  158.3215 O.2     1  UNL1       -0.2509
      5 C         141.1879  145.1637  158.8434 C.2     1  UNL1        0.3231
      6 N         141.8843  146.0910  157.8921 N.am    1  UNL1       -0.2671
      7 N         141.4514  145.2640  160.3168 N.am    1  UNL1       -0.1690
      8 H         142.5144  146.7654  158.2347 H       1  UNL1        0.1565
      9 H         142.0815  145.9384  160.6593 H       1  UNL1        0.1781
     10 C         141.6208  145.9907  156.4188 C.ar    1  UNL1        0.0516
     11 C         142.4877  145.1190  155.5595 C.ar    1  UNL1        0.0147
     12 C         142.2242  145.0187  154.0863 C.ar    1  UNL1        0.0013
     13 C         141.0937  145.7902  153.4724 C.ar    1  UNL1        0.0001
     14 C         140.2268  146.6619  154.3317 C.ar    1  UNL1        0.0013
     15 C         140.4904  146.7622  155.8049 C.ar    1  UNL1        0.0147
     16 C         140.0585  143.4093  162.2193 C.ar    1  UNL1        0.1255
     17 C         140.0162  141.9370  161.9357 C.ar    1  UNL1        0.0233
     18 C         139.3197  141.0097  162.8871 C.ar    1  UNL1        0.0383
     19 C         138.6656  141.5547  164.1220 C.ar    1  UNL1        0.1387
     20 C         138.7079  143.0270  164.4056 C.ar    1  UNL1        0.0383
     21 C         139.4044  143.9543  163.4543 C.ar    1  UNL1        0.0233
     22 O         137.9691  140.6274  165.0733 O.3     1  UNL1       -0.4740
     23 C         138.7670  139.6633  165.9003 C.3     1  UNL1        0.2226
     24 C         140.0530  140.1044  166.5342 C.3     1  UNL1        0.1200
     25 N         140.0270  140.9607  167.7656 N.3     1  UNL1       -0.2696
     26 C         139.4997  140.4043  169.0550 C.3     1  UNL1        0.0722
     27 C         139.4738  141.2606  170.2863 C.3     1  UNL1        0.0174
     28 C         139.9751  142.6732  170.2282 C.3     1  UNL1        0.0029
     29 C         140.5023  143.2295  168.9388 C.3     1  UNL1        0.0174
     30 C         140.5282  142.3732  167.7075 C.3     1  UNL1        0.0722
@<TRIPOS>BOND
     1     4     5    2
     2     5     6   am
     3     6    10    1
     4    10    11   ar
     5    11    12   ar
     6    12    13   ar
     7    13    14   ar
     8    14    15   ar
     9     5     7   am
    10     7     1    1
    11     1     2    2
    12     1     3    2
    13     1    16    1
    14    16    17   ar
    15    17    18   ar
    16    18    19   ar
    17    19    22    1
    18    22    23    1
    19    23    24    1
    20    24    25    1
    21    25    26    1
    22    26    27    1
    23    27    28    1
    24    28    29    1
    25    29    30    1
    26    19    20   ar
    27    20    21   ar
    28    15    10   ar
    29    21    16   ar
    30    30    25    1
    31     6     8    1
    32     7     9    1
@<TRIPOS>MOLECULE
*****
 30 32 0 0 0
SMALL
GASTEIGER

@<TRIPOS>ATOM
      1 S         142.9625  135.8342  156.5077 S.O2    1  UNL1        0.0768
      2 O         143.4377  135.9738  157.9235 O.2     1  UNL1       -0.1498
      3 O         142.4872  135.6947  155.0919 O.2     1  UNL1       -0.1498
      4 O         142.6472  132.9209  157.1506 O.2     1  UNL1       -0.2509
      5 C         143.9259  133.4217  156.5471 C.2     1  UNL1        0.3231
      6 N         145.0469  132.4659  156.2650 N.am    1  UNL1       -0.2671
      7 N         144.0835  134.8784  156.2256 N.am    1  UNL1       -0.1690
      8 H         145.8861  132.7945  155.8689 H       1  UNL1        0.1565
      9 H         144.9227  135.2071  155.8295 H       1  UNL1        0.1781
     10 C         144.8893  131.0091  156.5864 C.ar    1  UNL1        0.0516
     11 C         144.8461  129.9974  155.4799 C.ar    1  UNL1        0.0147
     12 C         144.6885  128.5407  155.8013 C.ar    1  UNL1        0.0013
     13 C         144.5741  128.0959  157.2293 C.ar    1  UNL1        0.0001
     14 C         144.6173  129.1077  158.3358 C.ar    1  UNL1        0.0013
     15 C         144.7749  130.5643  158.0143 C.ar    1  UNL1        0.0147
     16 C         141.8414  136.7901  156.7898 C.ar    1  UNL1        0.1255
     17 C         141.9638  137.7799  157.9102 C.ar    1  UNL1        0.0233
     18 C         140.8427  138.7358  158.1923 C.ar    1  UNL1        0.0383
     19 C         139.5993  138.7018  157.3540 C.ar    1  UNL1        0.1387
     20 C         139.4769  137.7120  156.2336 C.ar    1  UNL1        0.0383
     21 C         140.5980  136.7561  155.9515 C.ar    1  UNL1        0.0233
     22 O         138.4782  139.6576  157.6361 O.3     1  UNL1       -0.4740
     23 C         138.4425  140.4098  158.9334 C.3     1  UNL1        0.2226
     24 C         137.4939  139.9908  160.0173 C.3     1  UNL1        0.1200
     25 N         138.0259  139.5034  161.3324 N.3     1  UNL1       -0.2696
     26 C         138.7717  138.2038  161.4045 C.3     1  UNL1        0.0722
     27 C         139.3037  137.7164  162.7196 C.3     1  UNL1        0.0174
     28 C         139.0900  138.5286  163.9625 C.3     1  UNL1        0.0029
     29 C         138.3443  139.8281  163.8903 C.3     1  UNL1        0.0174
     30 C         137.8123  140.3155  162.5753 C.3     1  UNL1        0.0722
@<TRIPOS>BOND
     1     4     5    2
     2     5     6   am
     3     6    10    1
     4    10    11   ar
     5    11    12   ar
     6    12    13   ar
     7    13    14   ar
     8    14    15   ar
     9     5     7   am
    10     7     1    1
    11     1     2    2
    12     1     3    2
    13     1    16    1
    14    16    17   ar
    15    17    18   ar
    16    18    19   ar
    17    19    22    1
    18    22    23    1
    19    23    24    1
    20    24    25    1
    21    25    26    1
    22    26    27    1
    23    27    28    1
    24    28    29    1
    25    29    30    1
    26    19    20   ar
    27    20    21   ar
    28    15    10   ar
    29    21    16   ar
    30    30    25    1
    31     6     8    1
    32     7     9    1
