@<TRIPOS>MOLECULE
*****
 34 38 0 0 0
SMALL
GASTEIGER

@<TRIPOS>ATOM
      1 C         139.9579  139.5359  162.9126 C.ar    1  UNL1        0.0878
      2 C         138.8187  138.7331  163.4671 C.ar    1  UNL1        0.1543
      3 F         137.9598  137.9159  162.5480 F       1  UNL1       -0.2028
      4 C         138.5382  138.7474  164.9405 C.ar    1  UNL1        0.0356
      5 C         139.3970  139.5646  165.8595 C.ar    1  UNL1        0.0580
      6 C         139.1165  139.5789  167.3331 C.ar    1  UNL1        0.1996
      7 O         137.9773  138.7761  167.8875 O.2     1  UNL1       -0.2864
      8 C         139.9754  140.3961  168.2521 C.ar    1  UNL1        0.0701
      9 C         141.1147  141.1990  167.6976 C.ar    1  UNL1        0.0801
     10 N         141.3951  141.1847  166.2241 N.ar    1  UNL1       -0.3270
     11 C         140.5363  140.3675  165.3051 C.ar    1  UNL1        0.0750
     12 C         140.8167  140.3531  163.8317 C.ar    1  UNL1        0.0890
     13 CL        141.9561  141.1560  163.2772 Cl      1  UNL1       -0.0794
     14 C         140.9922  138.8256  159.2395 C.3     1  UNL1        0.0930
     15 C         140.3480  140.1735  159.1038 C.3     1  UNL1        0.0427
     16 C         139.8822  140.6036  160.4632 C.3     1  UNL1        0.0927
     17 N         140.2384  139.5216  161.4391 N.pl3   1  UNL1       -0.3033
     18 C         140.9244  138.4228  160.6828 C.3     1  UNL1        0.1104
     19 O         139.2548  137.7714  157.0327 O.2     1  UNL1       -0.2729
     20 C         140.7291  137.4947  157.0238 C.2     1  UNL1        0.2474
     21 N         141.5977  138.0218  158.1273 N.am    1  UNL1       -0.3026
     22 H         142.5653  137.8401  158.1215 H       1  UNL1        0.1495
     23 C         141.3346  136.6909  155.9116 C.3     1  UNL1        0.2136
     24 N         142.0286  135.3958  156.2138 N.ar    1  UNL1       -0.2206
     25 C         141.7348  134.0690  155.5790 C.ar    1  UNL1        0.1977
     26 N         142.6628  133.0535  156.1768 N.ar    1  UNL1       -0.2007
     27 C         143.5302  133.7527  157.1811 C.ar    1  UNL1        0.2210
     28 N         143.1382  135.2003  157.2040 N.ar    1  UNL1       -0.1447
     29 C         139.6949  140.4105  169.7255 C.2     1  UNL1        0.0774
     30 O         138.8106  141.4716  170.3104 O.co2   1  UNL1       -0.5444
     31 O         140.2987  139.3636  170.6142 O.co2   1  UNL1       -0.5444
     32 C         142.5344  141.9875  165.6697 C.3     1  UNL1        0.0857
     33 C         143.9798  142.0970  165.2840 C.3     1  UNL1        0.0245
     34 C         143.0623  143.2685  165.0951 C.3     1  UNL1        0.0245
@<TRIPOS>UNITY_ATOM_ATTR
30 1
charge -1
@<TRIPOS>BOND
     1    19    20    2
     2    20    23    1
     3    23    24    1
     4    24    25   ar
     5    25    26   ar
     6    26    27   ar
     7    27    28   ar
     8    20    21   am
     9    21    14    1
    10    14    15    1
    11    15    16    1
    12    16    17    1
    13    17     1    1
    14     1     2   ar
    15     2     3    1
    16     2     4   ar
    17     4     5   ar
    18     5     6   ar
    19     6     7    2
    20     6     8   ar
    21     8    29    1
    22    29    30   ar
    23    29    31   ar
    24     8     9   ar
    25     9    10   ar
    26    10    32    1
    27    32    33    1
    28    33    34    1
    29    10    11   ar
    30    11    12   ar
    31    12    13    1
    32    17    18    1
    33    28    24   ar
    34    18    14    1
    35    12     1   ar
    36    11     5   ar
    37    34    32    1
    38    21    22    1
@<TRIPOS>MOLECULE
*****
 34 38 0 0 0
SMALL
GASTEIGER

@<TRIPOS>ATOM
      1 C         142.1179  142.4424  163.8406 C.ar    1  UNL1        0.0878
      2 C         143.2105  143.2194  164.5132 C.ar    1  UNL1        0.1543
      3 F         144.0336  144.1935  163.7233 F       1  UNL1       -0.2028
      4 C         143.4800  143.0225  165.9755 C.ar    1  UNL1        0.0356
      5 C         142.6569  142.0484  166.7653 C.ar    1  UNL1        0.0580
      6 C         142.9265  141.8515  168.2277 C.ar    1  UNL1        0.1996
      7 O         144.0191  142.6285  168.9003 O.2     1  UNL1       -0.2864
      8 C         142.1034  140.8775  169.0176 C.ar    1  UNL1        0.0701
      9 C         141.0107  140.1004  168.3449 C.ar    1  UNL1        0.0801
     10 N         140.7412  140.2974  166.8826 N.ar    1  UNL1       -0.3270
     11 C         141.5643  141.2714  166.0928 C.ar    1  UNL1        0.0750
     12 C         141.2948  141.4684  164.6304 C.ar    1  UNL1        0.0890
     13 CL        140.2021  140.6913  163.9578 Cl      1  UNL1       -0.0794
     14 C         141.0111  143.5417  160.2864 C.3     1  UNL1        0.0930
     15 C         141.8557  142.3433  159.9693 C.3     1  UNL1        0.0427
     16 C         142.3731  141.7857  161.2621 C.3     1  UNL1        0.0927
     17 N         141.8483  142.6394  162.3782 N.pl3   1  UNL1       -0.3033
     18 C         141.0065  143.7247  161.7752 C.3     1  UNL1        0.1104
     19 O         142.5810  145.2168  158.3551 O.2     1  UNL1       -0.2729
     20 C         141.0815  145.2430  158.3241 C.2     1  UNL1        0.2474
     21 N         140.2966  144.4054  159.2897 N.am    1  UNL1       -0.3026
     22 H         139.3124  144.4226  159.2694 H       1  UNL1        0.1495
     23 C         140.3669  146.1067  157.3274 C.3     1  UNL1        0.2136
     24 N         139.3019  145.5169  156.4510 N.ar    1  UNL1       -0.2206
     25 C         138.4991  146.2548  155.4210 C.ar    1  UNL1        0.1977
     26 N         137.5538  145.2796  154.7843 N.ar    1  UNL1       -0.2007
     27 C         137.7724  143.9391  155.4207 C.ar    1  UNL1        0.2210
     28 N         138.8528  144.0858  156.4509 N.ar    1  UNL1       -0.1447
     29 C         142.3729  140.6805  170.4799 C.2     1  UNL1        0.0774
     30 O         143.4290  139.7123  170.9241 O.co2   1  UNL1       -0.5444
     31 O         141.5863  141.4516  171.4981 O.co2   1  UNL1       -0.5444
     32 C         139.6486  139.5204  166.2101 C.3     1  UNL1        0.0857
     33 C         138.2052  139.3712  165.8302 C.3     1  UNL1        0.0245
     34 C         139.1994  138.3237  165.4251 C.3     1  UNL1        0.0245
@<TRIPOS>UNITY_ATOM_ATTR
30 1
charge -1
@<TRIPOS>BOND
     1    19    20    2
     2    20    23    1
     3    23    24    1
     4    24    25   ar
     5    25    26   ar
     6    26    27   ar
     7    27    28   ar
     8    20    21   am
     9    21    14    1
    10    14    15    1
    11    15    16    1
    12    16    17    1
    13    17     1    1
    14     1     2   ar
    15     2     3    1
    16     2     4   ar
    17     4     5   ar
    18     5     6   ar
    19     6     7    2
    20     6     8   ar
    21     8    29    1
    22    29    30   ar
    23    29    31   ar
    24     8     9   ar
    25     9    10   ar
    26    10    32    1
    27    32    33    1
    28    33    34    1
    29    10    11   ar
    30    11    12   ar
    31    12    13    1
    32    17    18    1
    33    28    24   ar
    34    18    14    1
    35    12     1   ar
    36    11     5   ar
    37    34    32    1
    38    21    22    1
@<TRIPOS>MOLECULE
*****
 34 38 0 0 0
SMALL
GASTEIGER

@<TRIPOS>ATOM
      1 C         142.9992  141.3921  164.6103 C.ar    1  UNL1        0.0878
      2 C         143.8978  142.2502  165.4506 C.ar    1  UNL1        0.1543
      3 F         145.1746  142.7876  164.8753 F       1  UNL1       -0.2028
      4 C         143.5196  142.5708  166.8663 C.ar    1  UNL1        0.0356
      5 C         142.2429  142.0334  167.4416 C.ar    1  UNL1        0.0580
      6 C         141.8647  142.3541  168.8573 C.ar    1  UNL1        0.1996
      7 O         142.7633  143.2122  169.6976 O.2     1  UNL1       -0.2864
      8 C         140.5879  141.8167  169.4327 C.ar    1  UNL1        0.0701
      9 C         139.6893  140.9585  168.5923 C.ar    1  UNL1        0.0801
     10 N         140.0675  140.6378  167.1767 N.ar    1  UNL1       -0.3270
     11 C         141.3443  141.1753  166.6013 C.ar    1  UNL1        0.0750
     12 C         141.7225  140.8546  165.1857 C.ar    1  UNL1        0.0890
     13 CL        140.8239  139.9965  164.3453 Cl      1  UNL1       -0.0794
     14 C         143.8313  141.2906  160.8204 C.3     1  UNL1        0.0930
     15 C         144.0873  139.8652  161.2117 C.3     1  UNL1        0.0427
     16 C         143.8067  139.7298  162.6790 C.3     1  UNL1        0.0927
     17 N         143.3774  141.0713  163.1946 N.pl3   1  UNL1       -0.3033
     18 C         143.3926  142.0360  162.0460 C.3     1  UNL1        0.1104
     19 O         141.8421  140.6196  158.6774 O.2     1  UNL1       -0.2729
     20 C         142.9922  141.5334  158.3736 C.2     1  UNL1        0.2474
     21 N         143.9868  141.8689  159.4452 N.am    1  UNL1       -0.3026
     22 H         144.7417  142.4687  159.2459 H       1  UNL1        0.1495
     23 C         143.1477  142.1118  156.9984 C.3     1  UNL1        0.2136
     24 N         144.5172  142.3214  156.4233 N.ar    1  UNL1       -0.2206
     25 C         144.8278  142.7563  155.0218 C.ar    1  UNL1        0.1977
     26 N         146.3190  142.8365  154.8812 N.ar    1  UNL1       -0.2007
     27 C         146.9300  142.4512  156.1957 C.ar    1  UNL1        0.2210
     28 N         145.8164  142.1328  157.1488 N.ar    1  UNL1       -0.1447
     29 C         140.2097  142.1373  170.8483 C.2     1  UNL1        0.0774
     30 O         140.7210  141.2859  171.9725 O.co2   1  UNL1       -0.5444
     31 O         139.3203  143.3095  171.1399 O.co2   1  UNL1       -0.5444
     32 C         139.1689  139.7797  166.3364 C.3     1  UNL1        0.0857
     33 C         138.1122  139.6504  165.2797 C.3     1  UNL1        0.0245
     34 C         138.6692  138.4228  165.9376 C.3     1  UNL1        0.0245
@<TRIPOS>UNITY_ATOM_ATTR
30 1
charge -1
@<TRIPOS>BOND
     1    19    20    2
     2    20    23    1
     3    23    24    1
     4    24    25   ar
     5    25    26   ar
     6    26    27   ar
     7    27    28   ar
     8    20    21   am
     9    21    14    1
    10    14    15    1
    11    15    16    1
    12    16    17    1
    13    17     1    1
    14     1     2   ar
    15     2     3    1
    16     2     4   ar
    17     4     5   ar
    18     5     6   ar
    19     6     7    2
    20     6     8   ar
    21     8    29    1
    22    29    30   ar
    23    29    31   ar
    24     8     9   ar
    25     9    10   ar
    26    10    32    1
    27    32    33    1
    28    33    34    1
    29    10    11   ar
    30    11    12   ar
    31    12    13    1
    32    17    18    1
    33    28    24   ar
    34    18    14    1
    35    12     1   ar
    36    11     5   ar
    37    34    32    1
    38    21    22    1
@<TRIPOS>MOLECULE
*****
 34 38 0 0 0
SMALL
GASTEIGER

@<TRIPOS>ATOM
      1 C         142.8024  139.6435  163.4793 C.ar    1  UNL1        0.0878
      2 C         143.8584  139.1601  164.4285 C.ar    1  UNL1        0.1543
      3 F         145.1611  138.6382  163.8987 F       1  UNL1       -0.2028
      4 C         143.6118  139.1986  165.9075 C.ar    1  UNL1        0.0356
      5 C         142.3091  139.7205  166.4374 C.ar    1  UNL1        0.0580
      6 C         142.0625  139.7590  167.9165 C.ar    1  UNL1        0.1996
      7 O         143.1185  139.2757  168.8657 O.2     1  UNL1       -0.2864
      8 C         140.7598  140.2809  168.4463 C.ar    1  UNL1        0.0701
      9 C         139.7038  140.7643  167.4970 C.ar    1  UNL1        0.0801
     10 N         139.9504  140.7258  166.0179 N.ar    1  UNL1       -0.3270
     11 C         141.2531  140.2039  165.4881 C.ar    1  UNL1        0.0750
     12 C         141.4997  140.1654  164.0091 C.ar    1  UNL1        0.0890
     13 CL        140.4437  140.6488  163.0597 Cl      1  UNL1       -0.0794
     14 C         143.1752  138.8401  159.7002 C.3     1  UNL1        0.0930
     15 C         143.6817  140.2513  159.7479 C.3     1  UNL1        0.0427
     16 C         143.6037  140.7239  161.1693 C.3     1  UNL1        0.0927
     17 N         143.0490  139.6050  162.0001 N.pl3   1  UNL1       -0.3033
     18 C         142.7842  138.4407  161.0921 C.3     1  UNL1        0.1104
     19 O         140.6290  138.7719  158.1151 O.2     1  UNL1       -0.2729
     20 C         141.8039  137.9454  157.6830 C.2     1  UNL1        0.2474
     21 N         143.0770  137.9795  158.4755 N.am    1  UNL1       -0.3026
     22 H         143.8481  137.4371  158.1919 H       1  UNL1        0.1495
     23 C         141.7057  137.0848  156.4584 C.3     1  UNL1        0.2136
     24 N         142.1764  135.6613  156.5023 N.ar    1  UNL1       -0.2206
     25 C         141.6905  134.5445  155.6268 C.ar    1  UNL1        0.1977
     26 N         142.4295  133.2976  156.0129 N.ar    1  UNL1       -0.2007
     27 C         143.3722  133.6438  157.1271 C.ar    1  UNL1        0.2210
     28 N         143.2158  135.1046  157.4296 N.ar    1  UNL1       -0.1447
     29 C         140.5132  140.3195  169.9254 C.2     1  UNL1        0.0774
     30 O         141.3606  141.1906  170.8046 O.co2   1  UNL1       -0.5444
     31 O         139.4191  139.4868  170.5252 O.co2   1  UNL1       -0.5444
     32 C         138.8944  141.2092  165.0687 C.3     1  UNL1        0.0857
     33 C         137.7777  140.9185  164.1103 C.3     1  UNL1        0.0245
     34 C         138.1819  142.3370  164.3829 C.3     1  UNL1        0.0245
@<TRIPOS>UNITY_ATOM_ATTR
30 1
charge -1
@<TRIPOS>BOND
     1    19    20    2
     2    20    23    1
     3    23    24    1
     4    24    25   ar
     5    25    26   ar
     6    26    27   ar
     7    27    28   ar
     8    20    21   am
     9    21    14    1
    10    14    15    1
    11    15    16    1
    12    16    17    1
    13    17     1    1
    14     1     2   ar
    15     2     3    1
    16     2     4   ar
    17     4     5   ar
    18     5     6   ar
    19     6     7    2
    20     6     8   ar
    21     8    29    1
    22    29    30   ar
    23    29    31   ar
    24     8     9   ar
    25     9    10   ar
    26    10    32    1
    27    32    33    1
    28    33    34    1
    29    10    11   ar
    30    11    12   ar
    31    12    13    1
    32    17    18    1
    33    28    24   ar
    34    18    14    1
    35    12     1   ar
    36    11     5   ar
    37    34    32    1
    38    21    22    1
@<TRIPOS>MOLECULE
*****
 34 38 0 0 0
SMALL
GASTEIGER

@<TRIPOS>ATOM
      1 C         140.6190  139.5807  164.3323 C.ar    1  UNL1        0.0878
      2 C         141.2851  138.6448  165.2969 C.ar    1  UNL1        0.1543
      3 F         141.6717  137.2640  164.8565 F       1  UNL1       -0.2028
      4 C         141.5644  139.0897  166.7019 C.ar    1  UNL1        0.0356
      5 C         141.1778  140.4704  167.1423 C.ar    1  UNL1        0.0580
      6 C         141.4572  140.9153  168.5473 C.ar    1  UNL1        0.1996
      7 O         142.1232  139.9794  169.5119 O.2     1  UNL1       -0.2864
      8 C         141.0705  142.2961  168.9877 C.ar    1  UNL1        0.0701
      9 C         140.4044  143.2320  168.0230 C.ar    1  UNL1        0.0801
     10 N         140.1251  142.7871  166.6181 N.ar    1  UNL1       -0.3270
     11 C         140.5117  141.4063  166.1777 C.ar    1  UNL1        0.0750
     12 C         140.2323  140.9614  164.7727 C.ar    1  UNL1        0.0890
     13 CL        139.5663  141.8974  163.8081 Cl      1  UNL1       -0.0794
     14 C         140.5467  138.7742  160.5362 C.3     1  UNL1        0.0930
     15 C         139.2726  138.1283  160.9941 C.3     1  UNL1        0.0427
     16 C         139.1447  138.3518  162.4718 C.3     1  UNL1        0.0927
     17 N         140.3396  139.1358  162.9273 N.pl3   1  UNL1       -0.3033
     18 C         141.2061  139.3969  161.7310 C.3     1  UNL1        0.1104
     19 O         143.0419  137.2599  159.8425 O.2     1  UNL1       -0.2729
     20 C         142.3172  138.0369  158.7835 C.2     1  UNL1        0.2474
     21 N         141.0696  138.7940  159.1305 N.am    1  UNL1       -0.3026
     22 H         140.5939  139.3039  158.4355 H       1  UNL1        0.1495
     23 C         142.8400  138.0566  157.3778 C.3     1  UNL1        0.2136
     24 N         142.7325  136.8306  156.5203 N.ar    1  UNL1       -0.2206
     25 C         141.4595  136.2029  156.0351 C.ar    1  UNL1        0.1977
     26 N         141.8194  135.0014  155.2124 N.ar    1  UNL1       -0.2007
     27 C         143.3147  134.8865  155.1890 C.ar    1  UNL1        0.2210
     28 N         143.8791  136.0170  155.9974 N.ar    1  UNL1       -0.1447
     29 C         141.3499  142.7410  170.3927 C.2     1  UNL1        0.0774
     30 O         142.6108  143.4910  170.7052 O.co2   1  UNL1       -0.5444
     31 O         140.3684  142.4358  171.4852 O.co2   1  UNL1       -0.5444
     32 C         139.4590  143.7230  165.6535 C.3     1  UNL1        0.0857
     33 C         139.5541  144.7755  164.5890 C.3     1  UNL1        0.0245
     34 C         138.2103  144.2916  165.0473 C.3     1  UNL1        0.0245
@<TRIPOS>UNITY_ATOM_ATTR
30 1
charge -1
@<TRIPOS>BOND
     1    19    20    2
     2    20    23    1
     3    23    24    1
     4    24    25   ar
     5    25    26   ar
     6    26    27   ar
     7    27    28   ar
     8    20    21   am
     9    21    14    1
    10    14    15    1
    11    15    16    1
    12    16    17    1
    13    17     1    1
    14     1     2   ar
    15     2     3    1
    16     2     4   ar
    17     4     5   ar
    18     5     6   ar
    19     6     7    2
    20     6     8   ar
    21     8    29    1
    22    29    30   ar
    23    29    31   ar
    24     8     9   ar
    25     9    10   ar
    26    10    32    1
    27    32    33    1
    28    33    34    1
    29    10    11   ar
    30    11    12   ar
    31    12    13    1
    32    17    18    1
    33    28    24   ar
    34    18    14    1
    35    12     1   ar
    36    11     5   ar
    37    34    32    1
    38    21    22    1
@<TRIPOS>MOLECULE
*****
 34 38 0 0 0
SMALL
GASTEIGER

@<TRIPOS>ATOM
      1 C         142.8186  141.1295  164.6116 C.ar    1  UNL1        0.0878
      2 C         143.7574  142.0000  165.3931 C.ar    1  UNL1        0.1543
      3 F         145.0238  142.4951  164.7600 F       1  UNL1       -0.2028
      4 C         143.4296  142.3754  166.8079 C.ar    1  UNL1        0.0356
      5 C         142.1631  141.8803  167.4411 C.ar    1  UNL1        0.0580
      6 C         141.8354  142.2558  168.8559 C.ar    1  UNL1        0.1996
      7 O         142.7741  143.1263  169.6375 O.2     1  UNL1       -0.2864
      8 C         140.5689  141.7606  169.4891 C.ar    1  UNL1        0.0701
      9 C         139.6302  140.8901  168.7074 C.ar    1  UNL1        0.0801
     10 N         139.9579  140.5147  167.2927 N.ar    1  UNL1       -0.3270
     11 C         141.2244  141.0098  166.6595 C.ar    1  UNL1        0.0750
     12 C         141.5522  140.6344  165.2447 C.ar    1  UNL1        0.0890
     13 CL        140.6134  139.7638  164.4631 Cl      1  UNL1       -0.0794
     14 C         143.2732  140.7758  160.7730 C.3     1  UNL1        0.0930
     15 C         144.0281  139.5769  161.2660 C.3     1  UNL1        0.0427
     16 C         143.9497  139.5635  162.7639 C.3     1  UNL1        0.0927
     17 N         143.1464  140.7540  163.1967 N.pl3   1  UNL1       -0.3033
     18 C         142.7283  141.5032  161.9663 C.3     1  UNL1        0.1104
     19 O         145.1532  142.7511  159.5225 O.2     1  UNL1       -0.2729
     20 C         144.0346  142.1644  158.7134 C.2     1  UNL1        0.2474
     21 N         143.0946  141.1767  159.3387 N.am    1  UNL1       -0.3026
     22 H         142.3605  140.7916  158.8077 H       1  UNL1        0.1495
     23 C         143.8560  142.5653  157.2791 C.3     1  UNL1        0.2136
     24 N         143.0430  143.7780  156.9349 N.ar    1  UNL1       -0.2206
     25 C         142.4996  144.1195  155.5792 C.ar    1  UNL1        0.1977
     26 N         141.7515  145.4147  155.6926 N.ar    1  UNL1       -0.2007
     27 C         141.8326  145.8737  157.1182 C.ar    1  UNL1        0.2210
     28 N         142.6308  144.8622  157.8861 N.ar    1  UNL1       -0.1447
     29 C         140.2412  142.1360  170.9039 C.2     1  UNL1        0.0774
     30 O         139.3658  143.3220  171.1815 O.co2   1  UNL1       -0.5444
     31 O         140.7889  141.3255  172.0410 O.co2   1  UNL1       -0.5444
     32 C         139.0192  139.6441  166.5111 C.3     1  UNL1        0.0857
     33 C         138.0163  139.4776  165.4082 C.3     1  UNL1        0.0245
     34 C         138.3962  138.3029  166.2601 C.3     1  UNL1        0.0245
@<TRIPOS>UNITY_ATOM_ATTR
30 1
charge -1
@<TRIPOS>BOND
     1    19    20    2
     2    20    23    1
     3    23    24    1
     4    24    25   ar
     5    25    26   ar
     6    26    27   ar
     7    27    28   ar
     8    20    21   am
     9    21    14    1
    10    14    15    1
    11    15    16    1
    12    16    17    1
    13    17     1    1
    14     1     2   ar
    15     2     3    1
    16     2     4   ar
    17     4     5   ar
    18     5     6   ar
    19     6     7    2
    20     6     8   ar
    21     8    29    1
    22    29    30   ar
    23    29    31   ar
    24     8     9   ar
    25     9    10   ar
    26    10    32    1
    27    32    33    1
    28    33    34    1
    29    10    11   ar
    30    11    12   ar
    31    12    13    1
    32    17    18    1
    33    28    24   ar
    34    18    14    1
    35    12     1   ar
    36    11     5   ar
    37    34    32    1
    38    21    22    1
@<TRIPOS>MOLECULE
*****
 34 38 0 0 0
SMALL
GASTEIGER

@<TRIPOS>ATOM
      1 C         142.9244  141.4934  164.4688 C.ar    1  UNL1        0.0878
      2 C         143.8696  142.2902  165.3183 C.ar    1  UNL1        0.1543
      3 F         145.1293  142.8441  164.7213 F       1  UNL1       -0.2028
      4 C         143.5552  142.5331  166.7646 C.ar    1  UNL1        0.0356
      5 C         142.2955  141.9792  167.3616 C.ar    1  UNL1        0.0580
      6 C         141.9810  142.2222  168.8080 C.ar    1  UNL1        0.1996
      7 O         142.9262  143.0190  169.6575 O.2     1  UNL1       -0.2864
      8 C         140.7213  141.6683  169.4050 C.ar    1  UNL1        0.0701
      9 C         139.7761  140.8714  168.5555 C.ar    1  UNL1        0.0801
     10 N         140.0905  140.6285  167.1091 N.ar    1  UNL1       -0.3270
     11 C         141.3502  141.1824  166.5122 C.ar    1  UNL1        0.0750
     12 C         141.6647  140.9395  165.0658 C.ar    1  UNL1        0.0890
     13 CL        140.7195  140.1426  164.2163 Cl      1  UNL1       -0.0794
     14 C         143.5465  140.1522  160.8799 C.3     1  UNL1        0.0930
     15 C         143.8989  141.6008  160.7132 C.3     1  UNL1        0.0427
     16 C         143.7087  142.2794  162.0373 C.3     1  UNL1        0.0927
     17 N         143.2389  141.2504  163.0224 N.pl3   1  UNL1       -0.3033
     18 C         143.1386  139.9358  162.3071 C.3     1  UNL1        0.1104
     19 O         141.0057  139.1992  159.6010 O.2     1  UNL1       -0.2729
     20 C         142.3234  138.6277  159.1683 C.2     1  UNL1        0.2474
     21 N         143.5938  139.1043  159.8078 N.am    1  UNL1       -0.3026
     22 H         144.4587  138.7292  159.5238 H       1  UNL1        0.1495
     23 C         142.3707  137.5798  158.0961 C.3     1  UNL1        0.2136
     24 N         143.3548  137.7020  156.9707 N.ar    1  UNL1       -0.2206
     25 C         143.8595  136.5784  156.1147 C.ar    1  UNL1        0.1977
     26 N         144.8236  137.1514  155.1187 N.ar    1  UNL1       -0.2007
     27 C         144.9149  138.6291  155.3591 C.ar    1  UNL1        0.2210
     28 N         144.0071  138.9695  156.5037 N.ar    1  UNL1       -0.1447
     29 C         140.4068  141.9112  170.8514 C.2     1  UNL1        0.0774
     30 O         140.8763  140.9407  171.8943 O.co2   1  UNL1       -0.5444
     31 O         139.6229  143.1248  171.2549 O.co2   1  UNL1       -0.5444
     32 C         139.1453  139.8317  166.2597 C.3     1  UNL1        0.0857
     33 C         138.0523  139.7765  165.2338 C.3     1  UNL1        0.0245
     34 C         138.6010  138.5068  165.8143 C.3     1  UNL1        0.0245
@<TRIPOS>UNITY_ATOM_ATTR
30 1
charge -1
@<TRIPOS>BOND
     1    19    20    2
     2    20    23    1
     3    23    24    1
     4    24    25   ar
     5    25    26   ar
     6    26    27   ar
     7    27    28   ar
     8    20    21   am
     9    21    14    1
    10    14    15    1
    11    15    16    1
    12    16    17    1
    13    17     1    1
    14     1     2   ar
    15     2     3    1
    16     2     4   ar
    17     4     5   ar
    18     5     6   ar
    19     6     7    2
    20     6     8   ar
    21     8    29    1
    22    29    30   ar
    23    29    31   ar
    24     8     9   ar
    25     9    10   ar
    26    10    32    1
    27    32    33    1
    28    33    34    1
    29    10    11   ar
    30    11    12   ar
    31    12    13    1
    32    17    18    1
    33    28    24   ar
    34    18    14    1
    35    12     1   ar
    36    11     5   ar
    37    34    32    1
    38    21    22    1
@<TRIPOS>MOLECULE
*****
 34 38 0 0 0
SMALL
GASTEIGER

@<TRIPOS>ATOM
      1 C         139.7416  142.6179  164.1337 C.ar    1  UNL1        0.0878
      2 C         139.0532  143.6407  164.9881 C.ar    1  UNL1        0.1543
      3 F         138.0146  144.5420  164.3890 F       1  UNL1       -0.2028
      4 C         139.4035  143.7623  166.4415 C.ar    1  UNL1        0.0356
      5 C         140.4421  142.8610  167.0406 C.ar    1  UNL1        0.0580
      6 C         140.7924  142.9825  168.4941 C.ar    1  UNL1        0.1996
      7 O         140.1040  144.0054  169.3484 O.2     1  UNL1       -0.2864
      8 C         141.8310  142.0812  169.0932 C.ar    1  UNL1        0.0701
      9 C         142.5194  141.0584  168.2388 C.ar    1  UNL1        0.0801
     10 N         142.1691  140.9368  166.7854 N.ar    1  UNL1       -0.3270
     11 C         141.1305  141.8381  166.1863 C.ar    1  UNL1        0.0750
     12 C         140.7802  141.7166  164.7328 C.ar    1  UNL1        0.0890
     13 CL        141.4686  140.6937  163.8784 Cl      1  UNL1       -0.0794
     14 C         139.2231  142.9455  160.3010 C.3     1  UNL1        0.0930
     15 C         138.4817  141.6731  160.5861 C.3     1  UNL1        0.0427
     16 C         138.5857  141.3955  162.0565 C.3     1  UNL1        0.0927
     17 N         139.3913  142.4963  162.6802 N.pl3   1  UNL1       -0.3033
     18 C         139.7853  143.4543  161.5953 C.3     1  UNL1        0.1104
     19 O         141.3445  141.9922  158.4060 O.2     1  UNL1       -0.2729
     20 C         140.4362  143.1185  158.0101 C.2     1  UNL1        0.2474
     21 N         139.3755  143.5951  158.9576 N.am    1  UNL1       -0.3026
     22 H         138.7794  144.3343  158.6978 H       1  UNL1        0.1495
     23 C         140.5887  143.7681  156.6667 C.3     1  UNL1        0.2136
     24 N         139.9037  145.0718  156.3819 N.ar    1  UNL1       -0.2206
     25 C         139.0216  145.3657  155.2049 C.ar    1  UNL1        0.1977
     26 N         138.5534  146.7861  155.3198 N.ar    1  UNL1       -0.2007
     27 C         139.1462  147.3701  156.5678 C.ar    1  UNL1        0.2210
     28 N         139.9807  146.3106  157.2242 N.ar    1  UNL1       -0.1447
     29 C         142.1813  142.2028  170.5466 C.2     1  UNL1        0.0774
     30 O         141.8599  141.0832  171.4917 O.co2   1  UNL1       -0.5444
     31 O         142.8530  143.4439  171.0550 O.co2   1  UNL1       -0.5444
     32 C         142.8575  139.9140  165.9310 C.3     1  UNL1        0.0857
     33 C         143.9438  139.5482  164.9635 C.3     1  UNL1        0.0245
     34 C         142.9634  138.5082  165.4188 C.3     1  UNL1        0.0245
@<TRIPOS>UNITY_ATOM_ATTR
30 1
charge -1
@<TRIPOS>BOND
     1    19    20    2
     2    20    23    1
     3    23    24    1
     4    24    25   ar
     5    25    26   ar
     6    26    27   ar
     7    27    28   ar
     8    20    21   am
     9    21    14    1
    10    14    15    1
    11    15    16    1
    12    16    17    1
    13    17     1    1
    14     1     2   ar
    15     2     3    1
    16     2     4   ar
    17     4     5   ar
    18     5     6   ar
    19     6     7    2
    20     6     8   ar
    21     8    29    1
    22    29    30   ar
    23    29    31   ar
    24     8     9   ar
    25     9    10   ar
    26    10    32    1
    27    32    33    1
    28    33    34    1
    29    10    11   ar
    30    11    12   ar
    31    12    13    1
    32    17    18    1
    33    28    24   ar
    34    18    14    1
    35    12     1   ar
    36    11     5   ar
    37    34    32    1
    38    21    22    1
@<TRIPOS>MOLECULE
*****
 34 38 0 0 0
SMALL
GASTEIGER

@<TRIPOS>ATOM
      1 C         141.7408  140.3023  166.5404 C.ar    1  UNL1        0.0878
      2 C         142.7858  139.3595  166.0218 C.ar    1  UNL1        0.1543
      3 F         143.3564  138.3037  166.9217 F       1  UNL1       -0.2028
      4 C         143.2602  139.4725  164.6033 C.ar    1  UNL1        0.0356
      5 C         142.6896  140.5282  163.7034 C.ar    1  UNL1        0.0580
      6 C         143.1641  140.6411  162.2849 C.ar    1  UNL1        0.1996
      7 O         144.2091  139.6983  161.7663 O.2     1  UNL1       -0.2864
      8 C         142.5935  141.6969  161.3850 C.ar    1  UNL1        0.0701
      9 C         141.5484  142.6397  161.9037 C.ar    1  UNL1        0.0801
     10 N         141.0740  142.5268  163.3221 N.ar    1  UNL1       -0.3270
     11 C         141.6446  141.4710  164.2220 C.ar    1  UNL1        0.0750
     12 C         141.1702  141.3581  165.6405 C.ar    1  UNL1        0.0890
     13 CL        140.1251  142.3009  166.1592 Cl      1  UNL1       -0.0794
     14 C         139.8251  140.0057  169.9031 C.3     1  UNL1        0.0930
     15 C         141.2471  140.0256  170.3803 C.3     1  UNL1        0.0427
     16 C         142.1377  140.1392  169.1788 C.3     1  UNL1        0.0927
     17 N         141.2663  140.1894  167.9589 N.pl3   1  UNL1       -0.3033
     18 C         139.8370  140.1069  168.4066 C.3     1  UNL1        0.1104
     19 O         137.3531  138.6628  168.8611 O.2     1  UNL1       -0.2729
     20 C         137.3694  139.2312  170.2492 C.2     1  UNL1        0.2474
     21 N         138.6055  139.9026  170.7702 N.am    1  UNL1       -0.3026
     22 H         138.6162  140.2756  171.6812 H       1  UNL1        0.1495
     23 C         136.1498  139.1281  171.1163 C.3     1  UNL1        0.2136
     24 N         136.0061  137.9840  172.0757 N.ar    1  UNL1       -0.2206
     25 C         134.9917  137.8777  173.1755 C.ar    1  UNL1        0.1977
     26 N         135.2104  136.5734  173.8832 N.ar    1  UNL1       -0.2007
     27 C         136.3598  135.8736  173.2209 C.ar    1  UNL1        0.2210
     28 N         136.8517  136.7454  172.1037 N.ar    1  UNL1       -0.1447
     29 C         143.0679  141.8098  159.9665 C.2     1  UNL1        0.0774
     30 O         143.9825  142.9302  159.5685 O.co2   1  UNL1       -0.5444
     31 O         142.6277  140.8024  158.9460 O.co2   1  UNL1       -0.5444
     32 C         140.0290  143.4696  163.8407 C.3     1  UNL1        0.0857
     33 C         138.5889  143.7928  164.1085 C.3     1  UNL1        0.0245
     34 C         139.6590  144.7794  164.4712 C.3     1  UNL1        0.0245
@<TRIPOS>UNITY_ATOM_ATTR
30 1
charge -1
@<TRIPOS>BOND
     1    19    20    2
     2    20    23    1
     3    23    24    1
     4    24    25   ar
     5    25    26   ar
     6    26    27   ar
     7    27    28   ar
     8    20    21   am
     9    21    14    1
    10    14    15    1
    11    15    16    1
    12    16    17    1
    13    17     1    1
    14     1     2   ar
    15     2     3    1
    16     2     4   ar
    17     4     5   ar
    18     5     6   ar
    19     6     7    2
    20     6     8   ar
    21     8    29    1
    22    29    30   ar
    23    29    31   ar
    24     8     9   ar
    25     9    10   ar
    26    10    32    1
    27    32    33    1
    28    33    34    1
    29    10    11   ar
    30    11    12   ar
    31    12    13    1
    32    17    18    1
    33    28    24   ar
    34    18    14    1
    35    12     1   ar
    36    11     5   ar
    37    34    32    1
    38    21    22    1
