@<TRIPOS>MOLECULE
*****
 37 40 0 0 0
SMALL
GASTEIGER

@<TRIPOS>ATOM
      1 C         141.8482  144.7195  158.3221 C.3     1  UNL1        0.0530
      2 C         141.5263  144.1177  159.6579 C.ar    1  UNL1        0.0711
      3 N         142.4981  144.2485  160.7931 N.ar    1  UNL1       -0.2471
      4 C         142.1762  143.6468  162.1290 C.ar    1  UNL1        0.1020
      5 C         143.1480  143.7775  163.2641 C.ar    1  UNL1        0.0518
      6 C         142.8261  143.1758  164.5999 C.ar    1  UNL1        0.1593
      7 F         143.7979  143.3065  165.7351 F       1  UNL1       -0.2025
      8 C         141.5326  142.4434  164.8005 C.ar    1  UNL1        0.1117
      9 N         140.5608  142.3126  163.6653 N.ar    1  UNL1       -0.2402
     10 C         140.8827  142.9143  162.3296 C.ar    1  UNL1        0.1128
     11 C         139.9109  142.7836  161.1943 C.ar    1  UNL1        0.0760
     12 C         140.2328  143.3853  159.8586 C.ar    1  UNL1        0.0857
     13 CL        139.2610  143.2546  158.7233 Cl      1  UNL1       -0.0797
     14 C         141.2107  141.8417  166.1364 C.ar    1  UNL1        0.0582
     15 C         140.6308  142.6965  167.2239 C.ar    1  UNL1        0.1034
     16 N         140.3090  142.0948  168.5598 N.ar    1  UNL1       -0.2268
     17 C         140.5672  140.6382  168.8080 C.ar    1  UNL1        0.1630
     18 N         141.1472  139.7833  167.7204 N.ar    1  UNL1       -0.2268
     19 C         141.4690  140.3851  166.3846 C.ar    1  UNL1        0.1034
     20 C         140.2454  140.0365  170.1438 C.3     1  UNL1        0.1399
     21 C         141.6936  139.6994  170.3408 C.3     1  UNL1        0.0371
     22 C         138.7971  140.3736  169.9467 C.3     1  UNL1        0.0371
     23 O         139.9236  139.4348  171.4795 O.3     1  UNL1       -0.3796
     24 H         140.7372  139.0995  171.8876 H       1  UNL1        0.2108
     25 N         138.6174  142.0512  161.3949 N.pl3   1  UNL1       -0.3286
     26 H         137.8144  142.5409  161.6860 H       1  UNL1        0.1471
     27 C         138.5472  140.5726  161.1521 C.3     1  UNL1        0.0942
     28 C         137.9768  140.0498  159.8671 C.3     1  UNL1        0.0262
     29 C         139.0474  139.6169  162.1944 C.ar    1  UNL1        0.0236
     30 C         138.3538  139.5235  163.5211 C.ar    1  UNL1        0.0098
     31 C         138.8540  138.5677  164.5633 C.ar    1  UNL1        0.0683
     32 C         140.0479  137.7053  164.2788 C.ar    1  UNL1        0.0126
     33 C         140.7415  137.7986  162.9521 C.ar    1  UNL1        0.0301
     34 C         140.2412  138.7544  161.9099 C.ar    1  UNL1        0.1377
     35 F         140.9349  138.8477  160.5831 F       1  UNL1       -0.2044
     36 C         138.1605  138.4744  165.8901 C.1     1  UNL1        0.1004
     37 N         137.4669  138.3810  167.2168 N.1     1  UNL1       -0.1908
@<TRIPOS>BOND
     1     1     2    1
     2     2     3   ar
     3     3     4   ar
     4     4     5   ar
     5     5     6   ar
     6     6     7    1
     7     6     8   ar
     8     8    14    1
     9    14    15   ar
    10    15    16   ar
    11    16    17   ar
    12    17    20    1
    13    20    21    1
    14    20    22    1
    15    20    23    1
    16    17    18   ar
    17    18    19   ar
    18     8     9   ar
    19     9    10   ar
    20    10    11   ar
    21    11    25    1
    22    25    27    1
    23    27    28    1
    24    27    29    1
    25    29    30   ar
    26    30    31   ar
    27    31    36    1
    28    36    37    3
    29    31    32   ar
    30    32    33   ar
    31    33    34   ar
    32    34    35    1
    33    11    12   ar
    34    12    13    1
    35    12     2   ar
    36    10     4   ar
    37    34    29   ar
    38    19    14   ar
    39    23    24    1
    40    25    26    1
@<TRIPOS>MOLECULE
*****
 37 40 0 0 0
SMALL
GASTEIGER

@<TRIPOS>ATOM
      1 C         141.1184  145.4891  158.4047 C.3     1  UNL1        0.0530
      2 C         141.1059  144.7855  159.7295 C.ar    1  UNL1        0.0711
      3 N         140.0259  145.0835  160.7268 N.ar    1  UNL1       -0.2471
      4 C         140.0134  144.3799  162.0516 C.ar    1  UNL1        0.1020
      5 C         138.9334  144.6780  163.0489 C.ar    1  UNL1        0.0518
      6 C         138.9210  143.9744  164.3736 C.ar    1  UNL1        0.1593
      7 F         137.8410  144.2724  165.3710 F       1  UNL1       -0.2025
      8 C         139.9885  142.9728  164.7009 C.ar    1  UNL1        0.1117
      9 N         141.0685  142.6747  163.7035 N.ar    1  UNL1       -0.2402
     10 C         141.0810  143.3783  162.3789 C.ar    1  UNL1        0.1128
     11 C         142.1610  143.0803  161.3814 C.ar    1  UNL1        0.0760
     12 C         142.1734  143.7839  160.0568 C.ar    1  UNL1        0.0857
     13 CL        143.2535  143.4859  159.0593 Cl      1  UNL1       -0.0797
     14 C         139.9760  142.2692  166.0256 C.ar    1  UNL1        0.0582
     15 C         140.5691  142.9329  167.2330 C.ar    1  UNL1        0.1034
     16 N         140.5566  142.2293  168.5577 N.ar    1  UNL1       -0.2268
     17 C         139.9510  140.8620  168.6750 C.ar    1  UNL1        0.1630
     18 N         139.3580  140.1983  167.4676 N.ar    1  UNL1       -0.2268
     19 C         139.3705  140.9019  166.1429 C.ar    1  UNL1        0.1034
     20 C         139.9385  140.1584  169.9997 C.3     1  UNL1        0.1399
     21 C         141.4296  140.0094  169.9346 C.3     1  UNL1        0.0371
     22 C         138.4474  140.3074  170.0648 C.3     1  UNL1        0.0371
     23 O         139.9260  139.4548  171.3243 O.3     1  UNL1       -0.3796
     24 H         140.8324  139.2123  171.5702 H       1  UNL1        0.2108
     25 N         143.2285  142.0787  161.7088 N.pl3   1  UNL1       -0.3286
     26 H         144.1291  142.3845  161.9631 H       1  UNL1        0.1471
     27 C         142.9239  140.6112  161.6486 C.3     1  UNL1        0.0942
     28 C         142.7404  139.9371  160.3211 C.3     1  UNL1        0.0262
     29 C         142.8029  139.8177  162.9157 C.ar    1  UNL1        0.0236
     30 C         141.5001  139.1638  163.2696 C.ar    1  UNL1        0.0098
     31 C         141.3790  138.3703  164.5368 C.ar    1  UNL1        0.0683
     32 C         142.5608  138.2308  165.4501 C.ar    1  UNL1        0.0126
     33 C         143.8635  138.8848  165.0963 C.ar    1  UNL1        0.0301
     34 C         143.9845  139.6782  163.8291 C.ar    1  UNL1        0.1377
     35 F         145.2873  140.3322  163.4752 F       1  UNL1       -0.2044
     36 C         140.0763  137.7164  164.8906 C.1     1  UNL1        0.1004
     37 N         138.7736  137.0624  165.2445 N.1     1  UNL1       -0.1908
@<TRIPOS>BOND
     1     1     2    1
     2     2     3   ar
     3     3     4   ar
     4     4     5   ar
     5     5     6   ar
     6     6     7    1
     7     6     8   ar
     8     8    14    1
     9    14    15   ar
    10    15    16   ar
    11    16    17   ar
    12    17    20    1
    13    20    21    1
    14    20    22    1
    15    20    23    1
    16    17    18   ar
    17    18    19   ar
    18     8     9   ar
    19     9    10   ar
    20    10    11   ar
    21    11    25    1
    22    25    27    1
    23    27    28    1
    24    27    29    1
    25    29    30   ar
    26    30    31   ar
    27    31    36    1
    28    36    37    3
    29    31    32   ar
    30    32    33   ar
    31    33    34   ar
    32    34    35    1
    33    11    12   ar
    34    12    13    1
    35    12     2   ar
    36    10     4   ar
    37    34    29   ar
    38    19    14   ar
    39    23    24    1
    40    25    26    1
@<TRIPOS>MOLECULE
*****
 37 40 0 0 0
SMALL
GASTEIGER

@<TRIPOS>ATOM
      1 C         140.6364  145.4248  158.1260 C.3     1  UNL1        0.0530
      2 C         140.7036  144.7303  159.4539 C.ar    1  UNL1        0.0711
      3 N         139.6094  144.9291  160.4605 N.ar    1  UNL1       -0.2471
      4 C         139.6766  144.2346  161.7884 C.ar    1  UNL1        0.1020
      5 C         138.5825  144.4335  162.7950 C.ar    1  UNL1        0.0518
      6 C         138.6497  143.7390  164.1228 C.ar    1  UNL1        0.1593
      7 F         137.5555  143.9379  165.1295 F       1  UNL1       -0.2025
      8 C         139.8111  142.8457  164.4440 C.ar    1  UNL1        0.1117
      9 N         140.9052  142.6468  163.4375 N.ar    1  UNL1       -0.2402
     10 C         140.8380  143.3413  162.1096 C.ar    1  UNL1        0.1128
     11 C         141.9322  143.1425  161.1030 C.ar    1  UNL1        0.0760
     12 C         141.8649  143.8369  159.7752 C.ar    1  UNL1        0.0857
     13 CL        142.9591  143.6381  158.7685 Cl      1  UNL1       -0.0797
     14 C         139.8783  142.1512  165.7719 C.ar    1  UNL1        0.0582
     15 C         140.5162  142.8351  166.9446 C.ar    1  UNL1        0.1034
     16 N         140.5834  142.1406  168.2725 N.ar    1  UNL1       -0.2268
     17 C         140.0126  140.7622  168.4277 C.ar    1  UNL1        0.1630
     18 N         139.3746  140.0783  167.2549 N.ar    1  UNL1       -0.2268
     19 C         139.3074  140.7728  165.9271 C.ar    1  UNL1        0.1034
     20 C         140.0797  140.0677  169.7555 C.3     1  UNL1        0.1399
     21 C         141.5528  139.8544  169.5694 C.3     1  UNL1        0.0371
     22 C         138.6067  140.2810  169.9415 C.3     1  UNL1        0.0371
     23 O         140.1469  139.3732  171.0833 O.3     1  UNL1       -0.3796
     24 H         141.0595  139.0935  171.2560 H       1  UNL1        0.2108
     25 N         143.0935  142.2491  161.4242 N.pl3   1  UNL1       -0.3286
     26 H         143.9147  142.6295  161.8117 H       1  UNL1        0.1471
     27 C         143.0037  140.7762  161.1550 C.3     1  UNL1        0.0942
     28 C         143.5318  140.2154  159.8679 C.3     1  UNL1        0.0262
     29 C         142.3858  139.8641  162.1730 C.ar    1  UNL1        0.0236
     30 C         143.1336  139.5252  163.4284 C.ar    1  UNL1        0.0098
     31 C         142.5157  138.6131  164.4463 C.ar    1  UNL1        0.0683
     32 C         141.1500  138.0398  164.2088 C.ar    1  UNL1        0.0126
     33 C         140.4023  138.3787  162.9534 C.ar    1  UNL1        0.0301
     34 C         141.0202  139.2908  161.9355 C.ar    1  UNL1        0.1377
     35 F         140.2724  139.6297  160.6800 F       1  UNL1       -0.2044
     36 C         143.2634  138.2742  165.7017 C.1     1  UNL1        0.1004
     37 N         144.0110  137.9353  166.9571 N.1     1  UNL1       -0.1908
@<TRIPOS>BOND
     1     1     2    1
     2     2     3   ar
     3     3     4   ar
     4     4     5   ar
     5     5     6   ar
     6     6     7    1
     7     6     8   ar
     8     8    14    1
     9    14    15   ar
    10    15    16   ar
    11    16    17   ar
    12    17    20    1
    13    20    21    1
    14    20    22    1
    15    20    23    1
    16    17    18   ar
    17    18    19   ar
    18     8     9   ar
    19     9    10   ar
    20    10    11   ar
    21    11    25    1
    22    25    27    1
    23    27    28    1
    24    27    29    1
    25    29    30   ar
    26    30    31   ar
    27    31    36    1
    28    36    37    3
    29    31    32   ar
    30    32    33   ar
    31    33    34   ar
    32    34    35    1
    33    11    12   ar
    34    12    13    1
    35    12     2   ar
    36    10     4   ar
    37    34    29   ar
    38    19    14   ar
    39    23    24    1
    40    25    26    1
@<TRIPOS>MOLECULE
*****
 37 40 0 0 0
SMALL
GASTEIGER

@<TRIPOS>ATOM
      1 C         144.4923  141.4489  157.8556 C.3     1  UNL1        0.0530
      2 C         144.0522  141.4397  159.2896 C.ar    1  UNL1        0.0711
      3 N         144.3920  142.5935  160.1859 N.ar    1  UNL1       -0.2471
      4 C         143.9519  142.5843  161.6199 C.ar    1  UNL1        0.1020
      5 C         144.2916  143.7381  162.5161 C.ar    1  UNL1        0.0518
      6 C         143.8515  143.7288  163.9500 C.ar    1  UNL1        0.1593
      7 F         144.1913  144.8827  164.8463 F       1  UNL1       -0.2025
      8 C         143.0716  142.5658  164.4877 C.ar    1  UNL1        0.1117
      9 N         142.7318  141.4120  163.5914 N.ar    1  UNL1       -0.2402
     10 C         143.1719  141.4213  162.1575 C.ar    1  UNL1        0.1128
     11 C         142.8321  140.2675  161.2612 C.ar    1  UNL1        0.0760
     12 C         143.2723  140.2767  159.8273 C.ar    1  UNL1        0.0857
     13 CL        142.9325  139.1229  158.9310 Cl      1  UNL1       -0.0797
     14 C         142.6314  142.5566  165.9217 C.ar    1  UNL1        0.0582
     15 C         143.6528  142.5142  167.0194 C.ar    1  UNL1        0.1034
     16 N         143.2126  142.5050  168.4534 N.ar    1  UNL1       -0.2268
     17 C         141.7511  142.5382  168.7896 C.ar    1  UNL1        0.1630
     18 N         140.7298  142.5806  167.6917 N.ar    1  UNL1       -0.2268
     19 C         141.1700  142.5898  166.2578 C.ar    1  UNL1        0.1034
     20 C         141.3110  142.5290  170.2235 C.3     1  UNL1        0.1399
     21 C         142.2691  141.4112  170.5104 C.3     1  UNL1        0.0371
     22 C         140.3528  143.6468  169.9365 C.3     1  UNL1        0.0371
     23 O         140.8708  142.5198  171.6574 O.3     1  UNL1       -0.3796
     24 H         141.3601  141.8363  172.1414 H       1  UNL1        0.2108
     25 N         142.0522  139.1044  161.7989 N.pl3   1  UNL1       -0.3286
     26 H         142.5228  138.3460  162.2142 H       1  UNL1        0.1471
     27 C         140.5553  139.0970  161.7038 C.3     1  UNL1        0.0942
     28 C         139.8797  138.3955  160.5628 C.3     1  UNL1        0.0262
     29 C         139.7338  139.7910  162.7495 C.ar    1  UNL1        0.0236
     30 C         139.2732  139.0386  163.9627 C.ar    1  UNL1        0.0098
     31 C         138.4517  139.7326  165.0085 C.ar    1  UNL1        0.0683
     32 C         138.0910  141.1790  164.8410 C.ar    1  UNL1        0.0126
     33 C         138.5516  141.9313  163.6279 C.ar    1  UNL1        0.0301
     34 C         139.3731  141.2373  162.5821 C.ar    1  UNL1        0.1377
     35 F         139.8337  141.9896  161.3689 F       1  UNL1       -0.2044
     36 C         137.9911  138.9804  166.2217 C.1     1  UNL1        0.1004
     37 N         137.5304  138.2281  167.4348 N.1     1  UNL1       -0.1908
@<TRIPOS>BOND
     1     1     2    1
     2     2     3   ar
     3     3     4   ar
     4     4     5   ar
     5     5     6   ar
     6     6     7    1
     7     6     8   ar
     8     8    14    1
     9    14    15   ar
    10    15    16   ar
    11    16    17   ar
    12    17    20    1
    13    20    21    1
    14    20    22    1
    15    20    23    1
    16    17    18   ar
    17    18    19   ar
    18     8     9   ar
    19     9    10   ar
    20    10    11   ar
    21    11    25    1
    22    25    27    1
    23    27    28    1
    24    27    29    1
    25    29    30   ar
    26    30    31   ar
    27    31    36    1
    28    36    37    3
    29    31    32   ar
    30    32    33   ar
    31    33    34   ar
    32    34    35    1
    33    11    12   ar
    34    12    13    1
    35    12     2   ar
    36    10     4   ar
    37    34    29   ar
    38    19    14   ar
    39    23    24    1
    40    25    26    1
@<TRIPOS>MOLECULE
*****
 37 40 0 0 0
SMALL
GASTEIGER

@<TRIPOS>ATOM
      1 C         137.7815  140.4898  158.3492 C.3     1  UNL1        0.0530
      2 C         138.2768  140.6258  159.7586 C.ar    1  UNL1        0.0711
      3 N         138.2113  139.4542  160.6929 N.ar    1  UNL1       -0.2471
      4 C         138.7066  139.5901  162.1023 C.ar    1  UNL1        0.1020
      5 C         138.6411  138.4185  163.0366 C.ar    1  UNL1        0.0518
      6 C         139.1364  138.5545  164.4459 C.ar    1  UNL1        0.1593
      7 F         139.0709  137.3829  165.3803 F       1  UNL1       -0.2025
      8 C         139.6972  139.8622  164.9208 C.ar    1  UNL1        0.1117
      9 N         139.7628  141.0338  163.9865 N.ar    1  UNL1       -0.2402
     10 C         139.2675  140.8978  162.5772 C.ar    1  UNL1        0.1128
     11 C         139.3330  142.0694  161.6428 C.ar    1  UNL1        0.0760
     12 C         138.8377  141.9334  160.2336 C.ar    1  UNL1        0.0857
     13 CL        138.9032  143.1050  159.2992 Cl      1  UNL1       -0.0797
     14 C         140.1926  139.9981  166.3302 C.ar    1  UNL1        0.0582
     15 C         141.6192  140.3816  166.5901 C.ar    1  UNL1        0.1034
     16 N         142.1145  140.5176  167.9994 N.ar    1  UNL1       -0.2268
     17 C         141.1831  140.2701  169.1489 C.ar    1  UNL1        0.1630
     18 N         139.7564  139.8866  168.8890 N.ar    1  UNL1       -0.2268
     19 C         139.2612  139.7506  167.4797 C.ar    1  UNL1        0.1034
     20 C         141.6784  140.4060  170.5582 C.3     1  UNL1        0.1399
     21 C         142.6392  139.2771  170.3294 C.3     1  UNL1        0.0371
     22 C         140.7175  141.5349  170.7870 C.3     1  UNL1        0.0371
     23 O         142.1736  140.5420  171.9675 O.3     1  UNL1       -0.3796
     24 H         142.8662  139.8830  172.1318 H       1  UNL1        0.2108
     25 N         139.8938  143.3770  162.1178 N.pl3   1  UNL1       -0.3286
     26 H         139.3184  144.0128  162.6015 H       1  UNL1        0.1471
     27 C         141.3313  143.7160  161.8558 C.3     1  UNL1        0.0942
     28 C         141.7361  144.2956  160.5328 C.3     1  UNL1        0.0262
     29 C         142.3640  143.4754  162.9167 C.ar    1  UNL1        0.0236
     30 C         142.9629  142.1104  163.0846 C.ar    1  UNL1        0.0098
     31 C         143.9957  141.8698  164.1455 C.ar    1  UNL1        0.0683
     32 C         144.4295  142.9943  165.0386 C.ar    1  UNL1        0.0126
     33 C         143.8306  144.3592  164.8707 C.ar    1  UNL1        0.0301
     34 C         142.7979  144.5998  163.8098 C.ar    1  UNL1        0.1377
     35 F         142.1990  145.9648  163.6419 F       1  UNL1       -0.2044
     36 C         144.5946  140.5049  164.3134 C.1     1  UNL1        0.1004
     37 N         145.1935  139.1399  164.4813 N.1     1  UNL1       -0.1908
@<TRIPOS>BOND
     1     1     2    1
     2     2     3   ar
     3     3     4   ar
     4     4     5   ar
     5     5     6   ar
     6     6     7    1
     7     6     8   ar
     8     8    14    1
     9    14    15   ar
    10    15    16   ar
    11    16    17   ar
    12    17    20    1
    13    20    21    1
    14    20    22    1
    15    20    23    1
    16    17    18   ar
    17    18    19   ar
    18     8     9   ar
    19     9    10   ar
    20    10    11   ar
    21    11    25    1
    22    25    27    1
    23    27    28    1
    24    27    29    1
    25    29    30   ar
    26    30    31   ar
    27    31    36    1
    28    36    37    3
    29    31    32   ar
    30    32    33   ar
    31    33    34   ar
    32    34    35    1
    33    11    12   ar
    34    12    13    1
    35    12     2   ar
    36    10     4   ar
    37    34    29   ar
    38    19    14   ar
    39    23    24    1
    40    25    26    1
@<TRIPOS>MOLECULE
*****
 37 40 0 0 0
SMALL
GASTEIGER

@<TRIPOS>ATOM
      1 C         140.2236  146.1537  157.5757 C.3     1  UNL1        0.0530
      2 C         140.3736  145.3379  158.8256 C.ar    1  UNL1        0.0711
      3 N         139.7790  145.8236  160.1141 N.ar    1  UNL1       -0.2471
      4 C         139.9291  145.0077  161.3640 C.ar    1  UNL1        0.1020
      5 C         139.3345  145.4934  162.6525 C.ar    1  UNL1        0.0518
      6 C         139.4845  144.6776  163.9023 C.ar    1  UNL1        0.1593
      7 F         138.8899  145.1633  165.1909 F       1  UNL1       -0.2025
      8 C         140.2293  143.3762  163.8634 C.ar    1  UNL1        0.1117
      9 N         140.8239  142.8905  162.5749 N.ar    1  UNL1       -0.2402
     10 C         140.6738  143.7063  161.3251 C.ar    1  UNL1        0.1128
     11 C         141.2684  143.2206  160.0365 C.ar    1  UNL1        0.0760
     12 C         141.1184  144.0364  158.7867 C.ar    1  UNL1        0.0857
     13 CL        141.7130  143.5507  157.4981 Cl      1  UNL1       -0.0797
     14 C         140.3793  142.5603  165.1133 C.ar    1  UNL1        0.0582
     15 C         139.3289  141.5558  165.4838 C.ar    1  UNL1        0.1034
     16 N         139.4790  140.7399  166.7337 N.ar    1  UNL1       -0.2268
     17 C         140.6795  140.9288  167.6129 C.ar    1  UNL1        0.1630
     18 N         141.7300  141.9335  167.2423 N.ar    1  UNL1       -0.2268
     19 C         141.5799  142.7492  165.9925 C.ar    1  UNL1        0.1034
     20 C         140.8296  140.1131  168.8627 C.3     1  UNL1        0.1399
     21 C         139.3676  140.2849  169.1504 C.3     1  UNL1        0.0371
     22 C         142.2917  139.9412  168.5749 C.3     1  UNL1        0.0371
     23 O         140.9797  139.2973  170.1124 O.3     1  UNL1       -0.3796
     24 H         140.1207  139.2262  170.5573 H       1  UNL1        0.2108
     25 N         142.0132  141.9191  159.9976 N.pl3   1  UNL1       -0.3286
     26 H         141.5364  141.0854  159.7810 H       1  UNL1        0.1471
     27 C         143.4843  141.8878  160.2888 C.3     1  UNL1        0.0942
     28 C         144.4682  142.2675  159.2222 C.3     1  UNL1        0.0262
     29 C         143.9715  141.4767  161.6467 C.ar    1  UNL1        0.0236
     30 C         144.2391  142.5168  162.6940 C.ar    1  UNL1        0.0098
     31 C         144.7263  142.1058  164.0518 C.ar    1  UNL1        0.0683
     32 C         144.9459  140.6547  164.3623 C.ar    1  UNL1        0.0126
     33 C         144.6783  139.6148  163.3150 C.ar    1  UNL1        0.0301
     34 C         144.1911  140.0258  161.9572 C.ar    1  UNL1        0.1377
     35 F         143.9234  138.9858  160.9099 F       1  UNL1       -0.2044
     36 C         144.9939  143.1457  165.0991 C.1     1  UNL1        0.1004
     37 N         145.2616  144.1856  166.1464 N.1     1  UNL1       -0.1908
@<TRIPOS>BOND
     1     1     2    1
     2     2     3   ar
     3     3     4   ar
     4     4     5   ar
     5     5     6   ar
     6     6     7    1
     7     6     8   ar
     8     8    14    1
     9    14    15   ar
    10    15    16   ar
    11    16    17   ar
    12    17    20    1
    13    20    21    1
    14    20    22    1
    15    20    23    1
    16    17    18   ar
    17    18    19   ar
    18     8     9   ar
    19     9    10   ar
    20    10    11   ar
    21    11    25    1
    22    25    27    1
    23    27    28    1
    24    27    29    1
    25    29    30   ar
    26    30    31   ar
    27    31    36    1
    28    36    37    3
    29    31    32   ar
    30    32    33   ar
    31    33    34   ar
    32    34    35    1
    33    11    12   ar
    34    12    13    1
    35    12     2   ar
    36    10     4   ar
    37    34    29   ar
    38    19    14   ar
    39    23    24    1
    40    25    26    1
@<TRIPOS>MOLECULE
*****
 37 40 0 0 0
SMALL
GASTEIGER

@<TRIPOS>ATOM
      1 C         142.3059  137.7625  158.1102 C.3     1  UNL1        0.0530
      2 C         142.1663  138.2419  159.5247 C.ar    1  UNL1        0.0711
      3 N         143.3549  138.2354  160.4396 N.ar    1  UNL1       -0.2471
      4 C         143.2153  138.7148  161.8541 C.ar    1  UNL1        0.1020
      5 C         144.4039  138.7083  162.7690 C.ar    1  UNL1        0.0518
      6 C         144.2642  139.1877  164.1834 C.ar    1  UNL1        0.1593
      7 F         145.4529  139.1812  165.0984 F       1  UNL1       -0.2025
      8 C         142.9359  139.6735  164.6829 C.ar    1  UNL1        0.1117
      9 N         141.7473  139.6800  163.7680 N.ar    1  UNL1       -0.2402
     10 C         141.8870  139.2006  162.3536 C.ar    1  UNL1        0.1128
     11 C         140.6983  139.2071  161.4386 C.ar    1  UNL1        0.0760
     12 C         140.8380  138.7277  160.0242 C.ar    1  UNL1        0.0857
     13 CL        139.6493  138.7342  159.1092 Cl      1  UNL1       -0.0797
     14 C         142.7963  140.1529  166.0974 C.ar    1  UNL1        0.0582
     15 C         142.5414  141.6047  166.3756 C.ar    1  UNL1        0.1034
     16 N         142.4018  142.0840  167.7901 N.ar    1  UNL1       -0.2268
     17 C         142.5170  141.1116  168.9264 C.ar    1  UNL1        0.1630
     18 N         142.7719  139.6598  168.6481 N.ar    1  UNL1       -0.2268
     19 C         142.9115  139.1805  167.2337 C.ar    1  UNL1        0.1034
     20 C         142.3774  141.5909  170.3408 C.3     1  UNL1        0.1399
     21 C         143.4634  142.5986  170.1066 C.3     1  UNL1        0.0371
     22 C         141.2913  140.5832  170.5751 C.3     1  UNL1        0.0371
     23 O         142.2377  142.0702  171.7553 O.3     1  UNL1       -0.3796
     24 H         142.8698  142.7880  171.9174 H       1  UNL1        0.2108
     25 N         139.3700  139.6929  161.9382 N.pl3   1  UNL1       -0.3286
     26 H         138.7472  139.0651  162.3707 H       1  UNL1        0.1471
     27 C         138.9906  141.1354  161.7786 C.3     1  UNL1        0.0942
     28 C         138.0448  141.5461  160.6892 C.3     1  UNL1        0.0262
     29 C         139.5571  142.1671  162.7085 C.ar    1  UNL1        0.0236
     30 C         140.8896  142.7904  162.4150 C.ar    1  UNL1        0.0098
     31 C         141.4561  143.8222  163.3449 C.ar    1  UNL1        0.0683
     32 C         140.6900  144.2306  164.5682 C.ar    1  UNL1        0.0126
     33 C         139.3576  143.6073  164.8616 C.ar    1  UNL1        0.0301
     34 C         138.7912  142.5756  163.9318 C.ar    1  UNL1        0.1377
     35 F         137.4587  141.9523  164.2252 F       1  UNL1       -0.2044
     36 C         142.7885  144.4455  163.0514 C.1     1  UNL1        0.1004
     37 N         144.1209  145.0687  162.7580 N.1     1  UNL1       -0.1908
@<TRIPOS>BOND
     1     1     2    1
     2     2     3   ar
     3     3     4   ar
     4     4     5   ar
     5     5     6   ar
     6     6     7    1
     7     6     8   ar
     8     8    14    1
     9    14    15   ar
    10    15    16   ar
    11    16    17   ar
    12    17    20    1
    13    20    21    1
    14    20    22    1
    15    20    23    1
    16    17    18   ar
    17    18    19   ar
    18     8     9   ar
    19     9    10   ar
    20    10    11   ar
    21    11    25    1
    22    25    27    1
    23    27    28    1
    24    27    29    1
    25    29    30   ar
    26    30    31   ar
    27    31    36    1
    28    36    37    3
    29    31    32   ar
    30    32    33   ar
    31    33    34   ar
    32    34    35    1
    33    11    12   ar
    34    12    13    1
    35    12     2   ar
    36    10     4   ar
    37    34    29   ar
    38    19    14   ar
    39    23    24    1
    40    25    26    1
@<TRIPOS>MOLECULE
*****
 37 40 0 0 0
SMALL
GASTEIGER

@<TRIPOS>ATOM
      1 C         144.5638  141.6165  157.8424 C.3     1  UNL1        0.0530
      2 C         144.1247  141.5772  159.2762 C.ar    1  UNL1        0.0711
      3 N         144.4170  142.7363  160.1822 N.ar    1  UNL1       -0.2471
      4 C         143.9779  142.6970  161.6160 C.ar    1  UNL1        0.1020
      5 C         144.2703  143.8562  162.5220 C.ar    1  UNL1        0.0518
      6 C         143.8312  143.8168  163.9557 C.ar    1  UNL1        0.1593
      7 F         144.1235  144.9760  164.8617 F       1  UNL1       -0.2025
      8 C         143.0997  142.6183  164.4834 C.ar    1  UNL1        0.1117
      9 N         142.8073  141.4591  163.5774 N.ar    1  UNL1       -0.2402
     10 C         143.2464  141.4985  162.1437 C.ar    1  UNL1        0.1128
     11 C         142.9540  140.3393  161.2376 C.ar    1  UNL1        0.0760
     12 C         143.3932  140.3787  159.8039 C.ar    1  UNL1        0.0857
     13 CL        143.1008  139.2195  158.8978 Cl      1  UNL1       -0.0797
     14 C         142.6605  142.5790  165.9172 C.ar    1  UNL1        0.0582
     15 C         141.1989  142.5592  166.2537 C.ar    1  UNL1        0.1034
     16 N         140.7598  142.5199  167.6875 N.ar    1  UNL1       -0.2268
     17 C         141.7823  142.5003  168.7847 C.ar    1  UNL1        0.1630
     18 N         143.2440  142.5201  168.4482 N.ar    1  UNL1       -0.2268
     19 C         143.6831  142.5594  167.0145 C.ar    1  UNL1        0.1034
     20 C         141.3433  142.4610  170.2185 C.3     1  UNL1        0.1399
     21 C         140.4585  143.6485  169.9801 C.3     1  UNL1        0.0371
     22 C         142.2281  141.2735  170.4568 C.3     1  UNL1        0.0371
     23 O         140.9042  142.4217  171.6522 O.3     1  UNL1       -0.3796
     24 H         140.2701  143.1372  171.8159 H       1  UNL1        0.2108
     25 N         142.2226  139.1408  161.7654 N.pl3   1  UNL1       -0.3286
     26 H         142.7249  138.3931  162.1627 H       1  UNL1        0.1471
     27 C         140.7258  139.0815  161.6877 C.3     1  UNL1        0.0942
     28 C         140.0569  138.6638  160.4117 C.3     1  UNL1        0.0262
     29 C         139.8978  139.4399  162.8861 C.ar    1  UNL1        0.0236
     30 C         139.3849  140.8398  163.0518 C.ar    1  UNL1        0.0098
     31 C         138.5570  141.1982  164.2502 C.ar    1  UNL1        0.0683
     32 C         138.2419  140.1568  165.2828 C.ar    1  UNL1        0.0126
     33 C         138.7548  138.7570  165.1170 C.ar    1  UNL1        0.0301
     34 C         139.5827  138.3986  163.9186 C.ar    1  UNL1        0.1377
     35 F         140.0956  136.9987  163.7529 F       1  UNL1       -0.2044
     36 C         138.0441  142.5980  164.4159 C.1     1  UNL1        0.1004
     37 N         137.5312  143.9978  164.5817 N.1     1  UNL1       -0.1908
@<TRIPOS>BOND
     1     1     2    1
     2     2     3   ar
     3     3     4   ar
     4     4     5   ar
     5     5     6   ar
     6     6     7    1
     7     6     8   ar
     8     8    14    1
     9    14    15   ar
    10    15    16   ar
    11    16    17   ar
    12    17    20    1
    13    20    21    1
    14    20    22    1
    15    20    23    1
    16    17    18   ar
    17    18    19   ar
    18     8     9   ar
    19     9    10   ar
    20    10    11   ar
    21    11    25    1
    22    25    27    1
    23    27    28    1
    24    27    29    1
    25    29    30   ar
    26    30    31   ar
    27    31    36    1
    28    36    37    3
    29    31    32   ar
    30    32    33   ar
    31    33    34   ar
    32    34    35    1
    33    11    12   ar
    34    12    13    1
    35    12     2   ar
    36    10     4   ar
    37    34    29   ar
    38    19    14   ar
    39    23    24    1
    40    25    26    1
@<TRIPOS>MOLECULE
*****
 37 40 0 0 0
SMALL
GASTEIGER

@<TRIPOS>ATOM
      1 C         143.7582  140.2950  158.4198 C.3     1  UNL1        0.0530
      2 C         143.2970  140.4138  159.8423 C.ar    1  UNL1        0.0711
      3 N         144.0666  141.2606  160.8121 N.ar    1  UNL1       -0.2471
      4 C         143.6054  141.3794  162.2345 C.ar    1  UNL1        0.1020
      5 C         144.3751  142.2261  163.2043 C.ar    1  UNL1        0.0518
      6 C         143.9138  142.3449  164.6266 C.ar    1  UNL1        0.1593
      7 F         144.6835  143.1917  165.5965 F       1  UNL1       -0.2025
      8 C         142.6829  141.6168  165.0792 C.ar    1  UNL1        0.1117
      9 N         141.9133  140.7700  164.1094 N.ar    1  UNL1       -0.2402
     10 C         142.3745  140.6513  162.6871 C.ar    1  UNL1        0.1128
     11 C         141.6048  139.8045  161.7172 C.ar    1  UNL1        0.0760
     12 C         142.0661  139.6857  160.2949 C.ar    1  UNL1        0.0857
     13 CL        141.2964  138.8389  159.3250 Cl      1  UNL1       -0.0797
     14 C         142.2217  141.7355  166.5016 C.ar    1  UNL1        0.0582
     15 C         141.0963  142.6639  166.8501 C.ar    1  UNL1        0.1034
     16 N         140.6351  142.7827  168.2726 N.ar    1  UNL1       -0.2268
     17 C         141.2994  141.9730  169.3465 C.ar    1  UNL1        0.1630
     18 N         142.4248  141.0446  168.9979 N.ar    1  UNL1       -0.2268
     19 C         142.8860  140.9259  167.5755 C.ar    1  UNL1        0.1034
     20 C         140.8382  142.0917  170.7688 C.3     1  UNL1        0.1399
     21 C         141.7116  140.9330  171.1487 C.3     1  UNL1        0.0371
     22 C         139.9648  143.2505  170.3889 C.3     1  UNL1        0.0371
     23 O         140.3771  142.2105  172.1912 O.3     1  UNL1       -0.3796
     24 H         140.8102  141.5296  172.7294 H       1  UNL1        0.2108
     25 N         140.3739  139.0764  162.1698 N.pl3   1  UNL1       -0.3286
     26 H         140.4479  138.1668  162.5391 H       1  UNL1        0.1471
     27 C         139.0304  139.7342  162.0597 C.3     1  UNL1        0.0942
     28 C         137.9358  139.0771  161.2721 C.3     1  UNL1        0.0262
     29 C         138.7814  141.0491  162.7373 C.ar    1  UNL1        0.0236
     30 C         139.1063  142.3310  162.0293 C.ar    1  UNL1        0.0098
     31 C         138.8573  143.6459  162.7068 C.ar    1  UNL1        0.0683
     32 C         138.2833  143.6789  164.0923 C.ar    1  UNL1        0.0126
     33 C         137.9584  142.3970  164.8002 C.ar    1  UNL1        0.0301
     34 C         138.2074  141.0821  164.1227 C.ar    1  UNL1        0.1377
     35 F         137.8825  139.8002  164.8307 F       1  UNL1       -0.2044
     36 C         139.1821  144.9278  161.9989 C.1     1  UNL1        0.1004
     37 N         139.5070  146.2097  161.2910 N.1     1  UNL1       -0.1908
@<TRIPOS>BOND
     1     1     2    1
     2     2     3   ar
     3     3     4   ar
     4     4     5   ar
     5     5     6   ar
     6     6     7    1
     7     6     8   ar
     8     8    14    1
     9    14    15   ar
    10    15    16   ar
    11    16    17   ar
    12    17    20    1
    13    20    21    1
    14    20    22    1
    15    20    23    1
    16    17    18   ar
    17    18    19   ar
    18     8     9   ar
    19     9    10   ar
    20    10    11   ar
    21    11    25    1
    22    25    27    1
    23    27    28    1
    24    27    29    1
    25    29    30   ar
    26    30    31   ar
    27    31    36    1
    28    36    37    3
    29    31    32   ar
    30    32    33   ar
    31    33    34   ar
    32    34    35    1
    33    11    12   ar
    34    12    13    1
    35    12     2   ar
    36    10     4   ar
    37    34    29   ar
    38    19    14   ar
    39    23    24    1
    40    25    26    1
