@<TRIPOS>MOLECULE
*****
 41 45 0 0 0
SMALL
GASTEIGER

@<TRIPOS>ATOM
      1 N         143.0282  140.0105  164.1214 N.3     1  UNL1       -0.2688
      2 C         141.6798  139.8305  163.4893 C.3     1  UNL1        0.0741
      3 C         141.5228  138.9278  162.3016 C.3     1  UNL1        0.0369
      4 C         142.7140  138.2052  161.7461 C.3     1  UNL1        0.0747
      5 C         144.0624  138.3852  162.3781 C.3     1  UNL1        0.0369
      6 C         144.2195  139.2879  163.5657 C.3     1  UNL1        0.0741
      7 N         142.5569  137.3026  160.5584 N.am    1  UNL1       -0.2999
      8 C         142.7056  137.8548  159.1718 C.2     1  UNL1        0.2806
      9 O         143.0114  139.3097  158.9727 O.2     1  UNL1       -0.2668
     10 H         142.3562  136.3476  160.6891 H       1  UNL1        0.1498
     11 C         142.5484  136.9521  157.9841 C.ar    1  UNL1        0.2014
     12 C         141.6217  137.3349  156.8685 C.ar    1  UNL1        0.0843
     13 C         141.4645  136.4323  155.6809 C.ar    1  UNL1        0.2018
     14 O         140.5378  136.8151  154.5653 O.2     1  UNL1       -0.2864
     15 C         142.2341  135.1467  155.6088 C.ar    1  UNL1        0.0737
     16 C         142.0770  134.2441  154.4212 C.ar    1  UNL1        0.0085
     17 C         142.8466  132.9586  154.3492 C.ar    1  UNL1        0.0299
     18 C         143.7734  132.5758  155.4648 C.ar    1  UNL1        0.1432
     19 F         144.5430  131.2902  155.3927 F       1  UNL1       -0.2041
     20 C         143.9305  133.4784  156.6524 C.ar    1  UNL1        0.0672
     21 C         143.1609  134.7639  156.7244 C.ar    1  UNL1        0.1508
     22 O         143.3180  135.6666  157.9121 O.2     1  UNL1       -0.4486
     23 C         143.1853  140.9132  165.3090 C.3     1  UNL1        0.1000
     24 C         140.4710  140.4430  168.8673 C.ar    1  UNL1        0.0542
     25 C         141.6672  139.5512  168.7135 C.ar    1  UNL1        0.0043
     26 C         142.5720  139.7079  167.5274 C.ar    1  UNL1       -0.0019
     27 C         142.2805  140.7564  166.4951 C.ar    1  UNL1        0.0045
     28 C         141.0843  141.6482  166.6489 C.ar    1  UNL1        0.0551
     29 CL        140.7928  142.6968  165.6166 Cl      1  UNL1       -0.0825
     30 C         140.1795  141.4915  167.8350 C.ar    1  UNL1        0.0156
     31 O         140.0508  140.6646  171.4215 O.2     1  UNL1       -0.2701
     32 C         139.5662  140.2862  170.0534 C.2     1  UNL1        0.2459
     33 N         138.1768  139.7511  169.8713 N.am    1  UNL1       -0.2994
     34 H         137.8587  139.5028  168.9733 H       1  UNL1        0.1498
     35 C         137.2720  139.5944  171.0574 C.3     1  UNL1        0.1070
     36 C         136.1322  138.6204  171.0077 C.3     1  UNL1        0.0936
     37 N         135.8925  137.6872  172.1574 N.3     1  UNL1       -0.2712
     38 C         134.7018  137.6998  173.0697 C.3     1  UNL1        0.0722
     39 C         134.8749  136.5980  174.0727 C.3     1  UNL1        0.0188
     40 C         136.1724  135.9044  173.7804 C.3     1  UNL1        0.0188
     41 C         136.8013  136.5777  172.5966 C.3     1  UNL1        0.0722
@<TRIPOS>BOND
     1    31    32    2
     2    32    33   am
     3    33    35    1
     4    35    36    1
     5    36    37    1
     6    37    38    1
     7    38    39    1
     8    39    40    1
     9    40    41    1
    10    32    24    1
    11    24    25   ar
    12    25    26   ar
    13    26    27   ar
    14    27    23    1
    15    23     1    1
    16     1     2    1
    17     2     3    1
    18     3     4    1
    19     4     7    1
    20     7     8   am
    21     8     9    2
    22     8    11    1
    23    11    12   ar
    24    12    13   ar
    25    13    14    2
    26    13    15   ar
    27    15    16   ar
    28    16    17   ar
    29    17    18   ar
    30    18    19    1
    31    18    20   ar
    32    20    21   ar
    33    21    22   ar
    34     4     5    1
    35     5     6    1
    36    27    28   ar
    37    28    29    1
    38    28    30   ar
    39    41    37    1
    40    30    24   ar
    41     6     1    1
    42    22    11   ar
    43    21    15   ar
    44    33    34    1
    45     7    10    1
@<TRIPOS>MOLECULE
*****
 41 45 0 0 0
SMALL
GASTEIGER

@<TRIPOS>ATOM
      1 N         141.4236  137.9902  158.0232 N.3     1  UNL1       -0.2688
      2 C         142.5329  138.3586  158.9634 C.3     1  UNL1        0.0741
      3 C         142.2139  138.8367  160.3490 C.3     1  UNL1        0.0369
      4 C         140.7858  138.9464  160.7943 C.3     1  UNL1        0.0747
      5 C         139.6765  138.5781  159.8541 C.3     1  UNL1        0.0369
      6 C         139.9954  138.1000  158.4686 C.3     1  UNL1        0.0741
      7 N         140.4669  139.4245  162.1798 N.am    1  UNL1       -0.2999
      8 C         140.4108  138.4470  163.3162 C.2     1  UNL1        0.2806
      9 O         140.6737  136.9914  163.0670 O.2     1  UNL1       -0.2668
     10 H         140.2943  140.3799  162.3433 H       1  UNL1        0.1498
     11 C         140.0919  138.9252  164.7017 C.ar    1  UNL1        0.2014
     12 C         138.9275  138.3428  165.4466 C.ar    1  UNL1        0.0843
     13 C         138.6085  138.8209  166.8321 C.ar    1  UNL1        0.2018
     14 O         137.4441  138.2385  167.5770 O.2     1  UNL1       -0.2864
     15 C         139.4541  139.8815  167.4728 C.ar    1  UNL1        0.0737
     16 C         139.1351  140.3596  168.8583 C.ar    1  UNL1        0.0085
     17 C         139.9806  141.4201  169.4989 C.ar    1  UNL1        0.0299
     18 C         141.1451  142.0025  168.7540 C.ar    1  UNL1        0.1432
     19 F         141.9906  143.0630  169.3947 F       1  UNL1       -0.2041
     20 C         141.4640  141.5244  167.3685 C.ar    1  UNL1        0.0672
     21 C         140.6185  140.4639  166.7279 C.ar    1  UNL1        0.1508
     22 O         140.9374  139.9857  165.3423 O.2     1  UNL1       -0.4486
     23 C         141.7425  137.5121  156.6377 C.3     1  UNL1        0.1000
     24 C         142.8582  133.2082  155.9437 C.ar    1  UNL1        0.0542
     25 C         143.5876  134.0149  156.9767 C.ar    1  UNL1        0.0043
     26 C         143.2157  135.4495  157.2081 C.ar    1  UNL1       -0.0019
     27 C         142.1144  136.0775  156.4063 C.ar    1  UNL1        0.0045
     28 C         141.3850  135.2708  155.3733 C.ar    1  UNL1        0.0551
     29 CL        140.2837  135.8988  154.5715 Cl      1  UNL1       -0.0825
     30 C         141.7569  133.8362  155.1420 C.ar    1  UNL1        0.0156
     31 O         144.6744  131.3715  155.6647 O.2     1  UNL1       -0.2701
     32 C         143.2301  131.7736  155.7123 C.2     1  UNL1        0.2459
     33 N         142.1577  130.7411  155.5286 N.am    1  UNL1       -0.2994
     34 H         141.2098  131.0050  155.5599 H       1  UNL1        0.1498
     35 C         142.5296  129.3064  155.2973 C.3     1  UNL1        0.1070
     36 C         141.9589  128.2327  156.1756 C.3     1  UNL1        0.0936
     37 N         142.4129  128.1087  157.5999 N.3     1  UNL1       -0.2712
     38 C         143.4799  128.9309  158.2599 C.3     1  UNL1        0.0722
     39 C         143.6060  128.4710  159.6822 C.3     1  UNL1        0.0188
     40 C         142.6170  127.3647  159.9011 C.3     1  UNL1        0.0188
     41 C         141.8796  127.1408  158.6142 C.3     1  UNL1        0.0722
@<TRIPOS>BOND
     1    31    32    2
     2    32    33   am
     3    33    35    1
     4    35    36    1
     5    36    37    1
     6    37    38    1
     7    38    39    1
     8    39    40    1
     9    40    41    1
    10    32    24    1
    11    24    25   ar
    12    25    26   ar
    13    26    27   ar
    14    27    23    1
    15    23     1    1
    16     1     2    1
    17     2     3    1
    18     3     4    1
    19     4     7    1
    20     7     8   am
    21     8     9    2
    22     8    11    1
    23    11    12   ar
    24    12    13   ar
    25    13    14    2
    26    13    15   ar
    27    15    16   ar
    28    16    17   ar
    29    17    18   ar
    30    18    19    1
    31    18    20   ar
    32    20    21   ar
    33    21    22   ar
    34     4     5    1
    35     5     6    1
    36    27    28   ar
    37    28    29    1
    38    28    30   ar
    39    41    37    1
    40    30    24   ar
    41     6     1    1
    42    22    11   ar
    43    21    15   ar
    44    33    34    1
    45     7    10    1
@<TRIPOS>MOLECULE
*****
 41 45 0 0 0
SMALL
GASTEIGER

@<TRIPOS>ATOM
      1 N         141.3159  138.3085  157.9559 N.3     1  UNL1       -0.2688
      2 C         139.8849  138.2280  158.3983 C.3     1  UNL1        0.0741
      3 C         139.5112  138.6051  159.8013 C.3     1  UNL1        0.0369
      4 C         140.5686  139.0627  160.7618 C.3     1  UNL1        0.0747
      5 C         141.9996  139.1432  160.3194 C.3     1  UNL1        0.0369
      6 C         142.3733  138.7661  158.9165 C.3     1  UNL1        0.0741
      7 N         140.1949  139.4397  162.1646 N.am    1  UNL1       -0.2999
      8 C         140.2766  138.4206  163.2622 C.2     1  UNL1        0.2806
      9 O         140.7320  137.0244  162.9569 O.2     1  UNL1       -0.2668
     10 H         139.8960  140.3561  162.3650 H       1  UNL1        0.1498
     11 C         139.9029  138.7977  164.6652 C.ar    1  UNL1        0.2014
     12 C         138.6877  138.1949  165.3054 C.ar    1  UNL1        0.0843
     13 C         138.3139  138.5720  166.7083 C.ar    1  UNL1        0.2018
     14 O         137.0987  137.9692  167.3485 O.2     1  UNL1       -0.2864
     15 C         139.1555  139.5519  167.4710 C.ar    1  UNL1        0.0737
     16 C         138.7817  139.9290  168.8739 C.ar    1  UNL1        0.0085
     17 C         139.6232  140.9088  169.6366 C.ar    1  UNL1        0.0299
     18 C         140.8385  141.5116  168.9964 C.ar    1  UNL1        0.1432
     19 F         141.6800  142.4915  169.7591 F       1  UNL1       -0.2041
     20 C         141.2122  141.1345  167.5935 C.ar    1  UNL1        0.0672
     21 C         140.3707  140.1547  166.8308 C.ar    1  UNL1        0.1508
     22 O         140.7444  139.7775  165.4279 O.2     1  UNL1       -0.4486
     23 C         141.6896  137.9315  156.5530 C.3     1  UNL1        0.1000
     24 C         142.4089  133.6163  155.4986 C.ar    1  UNL1        0.0542
     25 C         143.2281  134.2733  156.5697 C.ar    1  UNL1        0.0043
     26 C         142.9884  135.7117  156.9211 C.ar    1  UNL1       -0.0019
     27 C         141.9294  136.4931  156.2015 C.ar    1  UNL1        0.0045
     28 C         141.1101  135.8361  155.1305 C.ar    1  UNL1        0.0551
     29 CL        140.0510  136.6175  154.4108 Cl      1  UNL1       -0.0825
     30 C         141.3499  134.3977  154.7790 C.ar    1  UNL1        0.0156
     31 O         143.3143  131.8236  153.8505 O.2     1  UNL1       -0.2701
     32 C         142.6487  132.1779  155.1472 C.2     1  UNL1        0.2459
     33 N         142.2229  131.0938  156.0924 N.am    1  UNL1       -0.2994
     34 H         141.7860  131.3264  156.9434 H       1  UNL1        0.1498
     35 C         142.4627  129.6554  155.7409 C.3     1  UNL1        0.1070
     36 C         141.6017  128.9806  154.7145 C.3     1  UNL1        0.0936
     37 N         140.5277  128.0267  155.1466 N.3     1  UNL1       -0.2712
     38 C         139.4078  127.5134  154.2906 C.3     1  UNL1        0.0722
     39 C         138.5730  126.5881  155.1255 C.3     1  UNL1        0.0188
     40 C         139.1769  126.5295  156.4973 C.3     1  UNL1        0.0188
     41 C         140.3849  127.4186  156.5103 C.3     1  UNL1        0.0722
@<TRIPOS>BOND
     1    31    32    2
     2    32    33   am
     3    33    35    1
     4    35    36    1
     5    36    37    1
     6    37    38    1
     7    38    39    1
     8    39    40    1
     9    40    41    1
    10    32    24    1
    11    24    25   ar
    12    25    26   ar
    13    26    27   ar
    14    27    23    1
    15    23     1    1
    16     1     2    1
    17     2     3    1
    18     3     4    1
    19     4     7    1
    20     7     8   am
    21     8     9    2
    22     8    11    1
    23    11    12   ar
    24    12    13   ar
    25    13    14    2
    26    13    15   ar
    27    15    16   ar
    28    16    17   ar
    29    17    18   ar
    30    18    19    1
    31    18    20   ar
    32    20    21   ar
    33    21    22   ar
    34     4     5    1
    35     5     6    1
    36    27    28   ar
    37    28    29    1
    38    28    30   ar
    39    41    37    1
    40    30    24   ar
    41     6     1    1
    42    22    11   ar
    43    21    15   ar
    44    33    34    1
    45     7    10    1
@<TRIPOS>MOLECULE
*****
 41 45 0 0 0
SMALL
GASTEIGER

@<TRIPOS>ATOM
      1 N         141.9660  142.2775  163.2697 N.3     1  UNL1       -0.2688
      2 C         143.2799  142.9682  163.0540 C.3     1  UNL1        0.0741
      3 C         144.0368  142.7579  161.7761 C.3     1  UNL1        0.0369
      4 C         143.4798  141.8570  160.7140 C.3     1  UNL1        0.0747
      5 C         142.1659  141.1663  160.9298 C.3     1  UNL1        0.0369
      6 C         141.4090  141.3765  162.2076 C.3     1  UNL1        0.0741
      7 N         144.2367  141.6467  159.4362 N.am    1  UNL1       -0.2999
      8 C         144.1478  142.6625  158.3360 C.2     1  UNL1        0.2806
      9 O         143.3020  143.8884  158.5137 O.2     1  UNL1       -0.2668
     10 H         144.7918  140.8421  159.3196 H       1  UNL1        0.1498
     11 C         144.9048  142.4522  157.0582 C.ar    1  UNL1        0.2014
     12 C         144.1672  142.3679  155.7548 C.ar    1  UNL1        0.0843
     13 C         144.9241  142.1576  154.4769 C.ar    1  UNL1        0.2018
     14 O         144.1865  142.0733  153.1735 O.2     1  UNL1       -0.2864
     15 C         146.4186  142.0316  154.5025 C.ar    1  UNL1        0.0737
     16 C         147.1755  141.8213  153.2247 C.ar    1  UNL1        0.0085
     17 C         148.6699  141.6953  153.2503 C.ar    1  UNL1        0.0299
     18 C         149.4075  141.7796  154.5537 C.ar    1  UNL1        0.1432
     19 F         150.9020  141.6536  154.5792 F       1  UNL1       -0.2041
     20 C         148.6506  141.9899  155.8315 C.ar    1  UNL1        0.0672
     21 C         147.1562  142.1159  155.8059 C.ar    1  UNL1        0.1508
     22 O         146.3992  142.3262  157.0838 O.2     1  UNL1       -0.4486
     23 C         141.2091  142.4878  164.5476 C.3     1  UNL1        0.1000
     24 C         142.4325  140.2850  168.2759 C.ar    1  UNL1        0.0542
     25 C         143.0237  139.9033  166.9513 C.ar    1  UNL1        0.0043
     26 C         142.6159  140.6376  165.7085 C.ar    1  UNL1       -0.0019
     27 C         141.6169  141.7535  165.7903 C.ar    1  UNL1        0.0045
     28 C         141.0257  142.1351  167.1150 C.ar    1  UNL1        0.0551
     29 CL        140.0267  143.2511  167.1970 Cl      1  UNL1       -0.0825
     30 C         141.4335  141.4009  168.3578 C.ar    1  UNL1        0.0156
     31 O         143.0551  140.3035  170.7982 O.2     1  UNL1       -0.2701
     32 C         142.8403  139.5507  169.5187 C.2     1  UNL1        0.2459
     33 N         143.0334  138.0637  169.4820 N.am    1  UNL1       -0.2994
     34 H         142.8925  137.5696  168.6422 H       1  UNL1        0.1498
     35 C         143.4412  137.3294  170.7248 C.3     1  UNL1        0.1070
     36 C         144.4517  136.2236  170.6451 C.3     1  UNL1        0.0936
     37 N         145.3273  135.9213  171.8249 N.3     1  UNL1       -0.2712
     38 C         145.3473  134.6386  172.6025 C.3     1  UNL1        0.0722
     39 C         146.3691  134.7733  173.6924 C.3     1  UNL1        0.0188
     40 C         146.9805  136.1390  173.5885 C.3     1  UNL1        0.0188
     41 C         146.3367  136.8485  172.4343 C.3     1  UNL1        0.0722
@<TRIPOS>BOND
     1    31    32    2
     2    32    33   am
     3    33    35    1
     4    35    36    1
     5    36    37    1
     6    37    38    1
     7    38    39    1
     8    39    40    1
     9    40    41    1
    10    32    24    1
    11    24    25   ar
    12    25    26   ar
    13    26    27   ar
    14    27    23    1
    15    23     1    1
    16     1     2    1
    17     2     3    1
    18     3     4    1
    19     4     7    1
    20     7     8   am
    21     8     9    2
    22     8    11    1
    23    11    12   ar
    24    12    13   ar
    25    13    14    2
    26    13    15   ar
    27    15    16   ar
    28    16    17   ar
    29    17    18   ar
    30    18    19    1
    31    18    20   ar
    32    20    21   ar
    33    21    22   ar
    34     4     5    1
    35     5     6    1
    36    27    28   ar
    37    28    29    1
    38    28    30   ar
    39    41    37    1
    40    30    24   ar
    41     6     1    1
    42    22    11   ar
    43    21    15   ar
    44    33    34    1
    45     7    10    1
@<TRIPOS>MOLECULE
*****
 41 45 0 0 0
SMALL
GASTEIGER

@<TRIPOS>ATOM
      1 N         141.1405  139.9807  158.8920 N.3     1  UNL1       -0.2688
      2 C         139.8069  139.7850  159.5501 C.3     1  UNL1        0.0741
      3 C         139.6343  140.1058  161.0053 C.3     1  UNL1        0.0369
      4 C         140.7954  140.6223  161.8022 C.3     1  UNL1        0.0747
      5 C         142.1290  140.8180  161.1441 C.3     1  UNL1        0.0369
      6 C         142.3016  140.4972  159.6890 C.3     1  UNL1        0.0741
      7 N         140.6228  140.9431  163.2573 N.am    1  UNL1       -0.2999
      8 C         140.6736  139.8456  164.2784 C.2     1  UNL1        0.2806
      9 O         140.8970  138.4272  163.8446 O.2     1  UNL1       -0.2668
     10 H         140.4761  141.8740  163.5421 H       1  UNL1        0.1498
     11 C         140.5010  140.1664  165.7336 C.ar    1  UNL1        0.2014
     12 C         139.3821  139.5404  166.5120 C.ar    1  UNL1        0.0843
     13 C         139.2094  139.8612  167.9671 C.ar    1  UNL1        0.2018
     14 O         138.0905  139.2351  168.7455 O.2     1  UNL1       -0.2864
     15 C         140.1558  140.8081  168.6438 C.ar    1  UNL1        0.0737
     16 C         139.9831  141.1289  170.0988 C.ar    1  UNL1        0.0085
     17 C         140.9294  142.0758  170.7754 C.ar    1  UNL1        0.0299
     18 C         142.0484  142.7019  169.9970 C.ar    1  UNL1        0.1432
     19 F         142.9947  143.6489  170.6736 F       1  UNL1       -0.2041
     20 C         142.2210  142.3811  168.5419 C.ar    1  UNL1        0.0672
     21 C         141.2747  141.4342  167.8653 C.ar    1  UNL1        0.1508
     22 O         141.4473  141.1133  166.4102 O.2     1  UNL1       -0.4486
     23 C         141.3131  139.6599  157.4369 C.3     1  UNL1        0.1000
     24 C         141.9902  135.4057  156.1357 C.ar    1  UNL1        0.0542
     25 C         142.9625  136.0695  157.0652 C.ar    1  UNL1        0.0043
     26 C         142.7368  137.4875  157.4989 C.ar    1  UNL1       -0.0019
     27 C         141.5388  138.2418  157.0032 C.ar    1  UNL1        0.0045
     28 C         140.5665  137.5780  156.0737 C.ar    1  UNL1        0.0551
     29 CL        139.3684  138.3323  155.5780 Cl      1  UNL1       -0.0825
     30 C         140.7922  136.1599  155.6400 C.ar    1  UNL1        0.0156
     31 O         141.0530  133.1365  155.2858 O.2     1  UNL1       -0.2701
     32 C         142.2159  133.9876  155.7020 C.2     1  UNL1        0.2459
     33 N         143.6045  133.4206  155.6844 N.am    1  UNL1       -0.2994
     34 H         144.3678  133.9793  155.9576 H       1  UNL1        0.1498
     35 C         143.8302  132.0026  155.2507 C.3     1  UNL1        0.1070
     36 C         144.7909  131.1315  156.0046 C.3     1  UNL1        0.0936
     37 N         144.2761  130.1278  156.9933 N.3     1  UNL1       -0.2712
     38 C         144.7230  129.9843  158.4180 C.3     1  UNL1        0.0722
     39 C         143.9470  128.8592  159.0361 C.3     1  UNL1        0.0188
     40 C         143.0205  128.3074  157.9934 C.3     1  UNL1        0.0188
     41 C         143.2239  129.0915  156.7309 C.3     1  UNL1        0.0722
@<TRIPOS>BOND
     1    31    32    2
     2    32    33   am
     3    33    35    1
     4    35    36    1
     5    36    37    1
     6    37    38    1
     7    38    39    1
     8    39    40    1
     9    40    41    1
    10    32    24    1
    11    24    25   ar
    12    25    26   ar
    13    26    27   ar
    14    27    23    1
    15    23     1    1
    16     1     2    1
    17     2     3    1
    18     3     4    1
    19     4     7    1
    20     7     8   am
    21     8     9    2
    22     8    11    1
    23    11    12   ar
    24    12    13   ar
    25    13    14    2
    26    13    15   ar
    27    15    16   ar
    28    16    17   ar
    29    17    18   ar
    30    18    19    1
    31    18    20   ar
    32    20    21   ar
    33    21    22   ar
    34     4     5    1
    35     5     6    1
    36    27    28   ar
    37    28    29    1
    38    28    30   ar
    39    41    37    1
    40    30    24   ar
    41     6     1    1
    42    22    11   ar
    43    21    15   ar
    44    33    34    1
    45     7    10    1
@<TRIPOS>MOLECULE
*****
 41 45 0 0 0
SMALL
GASTEIGER

@<TRIPOS>ATOM
      1 N         142.9808  141.3819  156.5375 N.3     1  UNL1       -0.2688
      2 C         144.2006  140.6934  156.0008 C.3     1  UNL1        0.0741
      3 C         144.1871  139.2102  155.7768 C.3     1  UNL1        0.0369
      4 C         142.9539  138.4156  156.0896 C.3     1  UNL1        0.0747
      5 C         141.7341  139.1042  156.6263 C.3     1  UNL1        0.0369
      6 C         141.7476  140.5873  156.8503 C.3     1  UNL1        0.0741
      7 N         142.9405  136.9325  155.8657 N.am    1  UNL1       -0.2999
      8 C         143.0269  135.9967  157.0347 C.2     1  UNL1        0.2806
      9 O         143.1268  136.5439  158.4277 O.2     1  UNL1       -0.2668
     10 H         142.8749  136.5733  154.9514 H       1  UNL1        0.1498
     11 C         143.0135  134.5135  156.8107 C.ar    1  UNL1        0.2014
     12 C         144.0581  133.6487  157.4517 C.ar    1  UNL1        0.0843
     13 C         144.0447  132.1657  157.2278 C.ar    1  UNL1        0.2018
     14 O         145.0894  131.3009  157.8688 O.2     1  UNL1       -0.2864
     15 C         142.9867  131.5473  156.3628 C.ar    1  UNL1        0.0737
     16 C         142.9733  130.0642  156.1388 C.ar    1  UNL1        0.0085
     17 C         141.9152  129.4458  155.2739 C.ar    1  UNL1        0.0299
     18 C         140.8706  130.3106  154.6329 C.ar    1  UNL1        0.1432
     19 F         139.8125  129.6922  153.7679 F       1  UNL1       -0.2041
     20 C         140.8840  131.7937  154.8568 C.ar    1  UNL1        0.0672
     21 C         141.9420  132.4120  155.7218 C.ar    1  UNL1        0.1508
     22 O         141.9554  133.8952  155.9458 O.2     1  UNL1       -0.4486
     23 C         142.9942  142.8650  156.7614 C.3     1  UNL1        0.1000
     24 C         140.7940  144.6313  160.2671 C.ar    1  UNL1        0.0542
     25 C         140.2116  144.7312  158.8884 C.ar    1  UNL1        0.0043
     26 C         140.9450  144.1425  157.7199 C.ar    1  UNL1       -0.0019
     27 C         142.2608  143.4538  157.9300 C.ar    1  UNL1        0.0045
     28 C         142.8433  143.3538  159.3086 C.ar    1  UNL1        0.0551
     29 CL        144.1592  142.6651  159.5188 Cl      1  UNL1       -0.0825
     30 C         142.1099  143.9426  160.4772 C.ar    1  UNL1        0.0156
     31 O         139.3485  146.5321  161.2903 O.2     1  UNL1       -0.2701
     32 C         140.0606  145.2200  161.4356 C.2     1  UNL1        0.2459
     33 N         140.0393  144.4966  162.7494 N.am    1  UNL1       -0.2994
     34 H         140.5067  143.6354  162.8448 H       1  UNL1        0.1498
     35 C         139.3059  145.0853  163.9180 C.3     1  UNL1        0.1070
     36 C         138.3133  144.2547  164.6762 C.3     1  UNL1        0.0936
     37 N         138.2100  142.7819  164.4112 N.3     1  UNL1       -0.2712
     38 C         138.8628  141.6941  165.2116 C.3     1  UNL1        0.0722
     39 C         138.4919  140.3782  164.5943 C.3     1  UNL1        0.0188
     40 C         137.6099  140.6528  163.4125 C.3     1  UNL1        0.0188
     41 C         137.4356  142.1384  163.2994 C.3     1  UNL1        0.0722
@<TRIPOS>BOND
     1    31    32    2
     2    32    33   am
     3    33    35    1
     4    35    36    1
     5    36    37    1
     6    37    38    1
     7    38    39    1
     8    39    40    1
     9    40    41    1
    10    32    24    1
    11    24    25   ar
    12    25    26   ar
    13    26    27   ar
    14    27    23    1
    15    23     1    1
    16     1     2    1
    17     2     3    1
    18     3     4    1
    19     4     7    1
    20     7     8   am
    21     8     9    2
    22     8    11    1
    23    11    12   ar
    24    12    13   ar
    25    13    14    2
    26    13    15   ar
    27    15    16   ar
    28    16    17   ar
    29    17    18   ar
    30    18    19    1
    31    18    20   ar
    32    20    21   ar
    33    21    22   ar
    34     4     5    1
    35     5     6    1
    36    27    28   ar
    37    28    29    1
    38    28    30   ar
    39    41    37    1
    40    30    24   ar
    41     6     1    1
    42    22    11   ar
    43    21    15   ar
    44    33    34    1
    45     7    10    1
@<TRIPOS>MOLECULE
*****
 41 45 0 0 0
SMALL
GASTEIGER

@<TRIPOS>ATOM
      1 N         141.6607  138.3970  158.8815 N.3     1  UNL1       -0.2688
      2 C         142.9827  138.6049  159.5592 C.3     1  UNL1        0.0741
      3 C         143.0423  138.7876  161.0469 C.3     1  UNL1        0.0369
      4 C         141.7801  138.7625  161.8568 C.3     1  UNL1        0.0747
      5 C         140.4581  138.5547  161.1792 C.3     1  UNL1        0.0369
      6 C         140.3984  138.3719  159.6916 C.3     1  UNL1        0.0741
      7 N         141.8398  138.9452  163.3444 N.am    1  UNL1       -0.2999
      8 C         141.7024  140.3160  163.9378 C.2     1  UNL1        0.2806
      9 O         141.5053  141.5041  163.0436 O.2     1  UNL1       -0.2668
     10 H         141.9691  138.1655  163.9314 H       1  UNL1        0.1498
     11 C         141.7621  140.4987  165.4255 C.ar    1  UNL1        0.2014
     12 C         142.4524  139.4768  166.2795 C.ar    1  UNL1        0.0843
     13 C         142.5121  139.6595  167.7671 C.ar    1  UNL1        0.2018
     14 O         143.2024  138.6376  168.6211 O.2     1  UNL1       -0.2864
     15 C         141.8816  140.8641  168.4008 C.ar    1  UNL1        0.0737
     16 C         141.9413  141.0467  169.8884 C.ar    1  UNL1        0.0085
     17 C         141.3108  142.2512  170.5220 C.ar    1  UNL1        0.0299
     18 C         140.6206  143.2731  169.6680 C.ar    1  UNL1        0.1432
     19 F         139.9900  144.4777  170.3017 F       1  UNL1       -0.2041
     20 C         140.5608  143.0905  168.1804 C.ar    1  UNL1        0.0672
     21 C         141.1913  141.8859  167.5468 C.ar    1  UNL1        0.1508
     22 O         141.1316  141.7032  166.0591 O.2     1  UNL1       -0.4486
     23 C         141.6010  138.2143  157.3939 C.3     1  UNL1        0.1000
     24 C         142.3481  134.1585  155.5934 C.ar    1  UNL1        0.0542
     25 C         143.2673  134.6895  156.6532 C.ar    1  UNL1        0.0043
     26 C         143.0183  136.0414  157.2533 C.ar    1  UNL1       -0.0019
     27 C         141.8500  136.8624  156.7938 C.ar    1  UNL1        0.0045
     28 C         140.9309  136.3314  155.7340 C.ar    1  UNL1        0.0551
     29 CL        139.7625  137.1523  155.2744 Cl      1  UNL1       -0.0825
     30 C         141.1799  134.9794  155.1339 C.ar    1  UNL1        0.0156
     31 O         142.5011  132.6158  153.5086 O.2     1  UNL1       -0.2701
     32 C         142.5972  132.8065  154.9932 C.2     1  UNL1        0.2459
     33 N         142.9423  131.6453  155.8777 N.am    1  UNL1       -0.2994
     34 H         143.0054  131.7705  156.8522 H       1  UNL1        0.1498
     35 C         143.1913  130.2933  155.2776 C.3     1  UNL1        0.1070
     36 C         144.0426  129.2951  156.0049 C.3     1  UNL1        0.0936
     37 N         143.6229  128.7940  157.3550 N.3     1  UNL1       -0.2712
     38 C         142.5437  127.7879  157.6257 C.3     1  UNL1        0.0722
     39 C         142.4626  127.5831  159.1095 C.3     1  UNL1        0.0188
     40 C         143.4916  128.4626  159.7558 C.3     1  UNL1        0.0188
     41 C         144.2087  129.2109  158.6715 C.3     1  UNL1        0.0722
@<TRIPOS>BOND
     1    31    32    2
     2    32    33   am
     3    33    35    1
     4    35    36    1
     5    36    37    1
     6    37    38    1
     7    38    39    1
     8    39    40    1
     9    40    41    1
    10    32    24    1
    11    24    25   ar
    12    25    26   ar
    13    26    27   ar
    14    27    23    1
    15    23     1    1
    16     1     2    1
    17     2     3    1
    18     3     4    1
    19     4     7    1
    20     7     8   am
    21     8     9    2
    22     8    11    1
    23    11    12   ar
    24    12    13   ar
    25    13    14    2
    26    13    15   ar
    27    15    16   ar
    28    16    17   ar
    29    17    18   ar
    30    18    19    1
    31    18    20   ar
    32    20    21   ar
    33    21    22   ar
    34     4     5    1
    35     5     6    1
    36    27    28   ar
    37    28    29    1
    38    28    30   ar
    39    41    37    1
    40    30    24   ar
    41     6     1    1
    42    22    11   ar
    43    21    15   ar
    44    33    34    1
    45     7    10    1
@<TRIPOS>MOLECULE
*****
 41 45 0 0 0
SMALL
GASTEIGER

@<TRIPOS>ATOM
      1 N         140.0452  141.0832  159.4929 N.3     1  UNL1       -0.2688
      2 C         140.7045  141.2243  158.1530 C.3     1  UNL1        0.0741
      3 C         140.9040  140.0176  157.2845 C.3     1  UNL1        0.0369
      4 C         140.4442  138.6700  157.7560 C.3     1  UNL1        0.0747
      5 C         139.7849  138.5289  159.0959 C.3     1  UNL1        0.0369
      6 C         139.5854  139.7355  159.9644 C.3     1  UNL1        0.0741
      7 N         140.6437  137.4634  156.8875 N.am    1  UNL1       -0.2999
      8 C         141.9397  136.7098  156.9367 C.2     1  UNL1        0.2806
      9 O         143.0363  137.1629  157.8544 O.2     1  UNL1       -0.2668
     10 H         139.9240  137.1660  156.2851 H       1  UNL1        0.1498
     11 C         142.1392  135.5032  156.0682 C.ar    1  UNL1        0.2014
     12 C         141.3886  135.3771  154.7757 C.ar    1  UNL1        0.0843
     13 C         141.5880  134.1705  153.9071 C.ar    1  UNL1        0.2018
     14 O         140.8374  134.0445  152.6146 O.2     1  UNL1       -0.2864
     15 C         142.5381  133.0899  154.3311 C.ar    1  UNL1        0.0737
     16 C         142.7375  131.8834  153.4626 C.ar    1  UNL1        0.0085
     17 C         143.6876  130.8029  153.8867 C.ar    1  UNL1        0.0299
     18 C         144.4382  130.9289  155.1792 C.ar    1  UNL1        0.1432
     19 F         145.3883  129.8483  155.6032 F       1  UNL1       -0.2041
     20 C         144.2388  132.1355  156.0477 C.ar    1  UNL1        0.0672
     21 C         143.2887  133.2160  155.6237 C.ar    1  UNL1        0.1508
     22 O         143.0893  134.4227  156.4922 O.2     1  UNL1       -0.4486
     23 C         139.8457  142.2898  160.3614 C.3     1  UNL1        0.1000
     24 C         139.8856  141.8689  164.8415 C.ar    1  UNL1        0.0542
     25 C         138.5800  141.9345  164.1059 C.ar    1  UNL1        0.0043
     26 C         138.5667  142.0748  162.6126 C.ar    1  UNL1       -0.0019
     27 C         139.8590  142.1495  161.8547 C.ar    1  UNL1        0.0045
     28 C         141.1646  142.0839  162.5903 C.ar    1  UNL1        0.0551
     29 CL        142.4570  142.1586  161.8325 Cl      1  UNL1       -0.0825
     30 C         141.1779  141.9436  164.0836 C.ar    1  UNL1        0.0156
     31 O         140.3479  142.8748  167.1918 O.2     1  UNL1       -0.2701
     32 C         139.8989  141.7286  166.3348 C.2     1  UNL1        0.2459
     33 N         139.4631  140.4421  166.9712 N.am    1  UNL1       -0.2994
     34 H         139.1684  139.6898  166.4087 H       1  UNL1        0.1498
     35 C         139.4764  140.3018  168.4645 C.3     1  UNL1        0.1070
     36 C         140.7496  139.9450  169.1730 C.3     1  UNL1        0.0936
     37 N         141.7216  141.0213  169.5563 N.3     1  UNL1       -0.2712
     38 C         141.4440  142.1732  170.4762 C.3     1  UNL1        0.0722
     39 C         142.6927  142.9984  170.5753 C.3     1  UNL1        0.0188
     40 C         143.7420  142.3566  169.7168 C.3     1  UNL1        0.0188
     41 C         143.1417  141.1347  169.0870 C.3     1  UNL1        0.0722
@<TRIPOS>BOND
     1    31    32    2
     2    32    33   am
     3    33    35    1
     4    35    36    1
     5    36    37    1
     6    37    38    1
     7    38    39    1
     8    39    40    1
     9    40    41    1
    10    32    24    1
    11    24    25   ar
    12    25    26   ar
    13    26    27   ar
    14    27    23    1
    15    23     1    1
    16     1     2    1
    17     2     3    1
    18     3     4    1
    19     4     7    1
    20     7     8   am
    21     8     9    2
    22     8    11    1
    23    11    12   ar
    24    12    13   ar
    25    13    14    2
    26    13    15   ar
    27    15    16   ar
    28    16    17   ar
    29    17    18   ar
    30    18    19    1
    31    18    20   ar
    32    20    21   ar
    33    21    22   ar
    34     4     5    1
    35     5     6    1
    36    27    28   ar
    37    28    29    1
    38    28    30   ar
    39    41    37    1
    40    30    24   ar
    41     6     1    1
    42    22    11   ar
    43    21    15   ar
    44    33    34    1
    45     7    10    1
@<TRIPOS>MOLECULE
*****
 41 45 0 0 0
SMALL
GASTEIGER

@<TRIPOS>ATOM
      1 N         140.9522  141.0983  162.4157 N.3     1  UNL1       -0.2688
      2 C         140.9582  141.7147  161.0482 C.3     1  UNL1        0.0741
      3 C         140.8369  140.8441  159.8327 C.3     1  UNL1        0.0369
      4 C         140.7096  139.3573  159.9846 C.3     1  UNL1        0.0747
      5 C         140.7037  138.7409  161.3521 C.3     1  UNL1        0.0369
      6 C         140.8250  139.6114  162.5677 C.3     1  UNL1        0.0741
      7 N         140.5884  138.4869  158.7691 N.am    1  UNL1       -0.2999
      8 C         141.8214  137.9484  158.1062 C.2     1  UNL1        0.2806
      9 O         143.1758  138.2804  158.6587 O.2     1  UNL1       -0.2668
     10 H         139.6994  138.2690  158.4064 H       1  UNL1        0.1498
     11 C         141.7001  137.0779  156.8906 C.ar    1  UNL1        0.2014
     12 C         140.8210  137.4997  155.7508 C.ar    1  UNL1        0.0843
     13 C         140.6996  136.6293  154.5352 C.ar    1  UNL1        0.2018
     14 O         139.8205  137.0512  153.3954 O.2     1  UNL1       -0.2864
     15 C         141.4574  135.3370  154.4594 C.ar    1  UNL1        0.0737
     16 C         141.3360  134.4666  153.2439 C.ar    1  UNL1        0.0085
     17 C         142.0938  133.1743  153.1682 C.ar    1  UNL1        0.0299
     18 C         142.9729  132.7524  154.3080 C.ar    1  UNL1        0.1432
     19 F         143.7307  131.4601  154.2322 F       1  UNL1       -0.2041
     20 C         143.0943  133.6228  155.5235 C.ar    1  UNL1        0.0672
     21 C         142.3365  134.9151  155.5992 C.ar    1  UNL1        0.1508
     22 O         142.4579  135.7856  156.8148 O.2     1  UNL1       -0.4486
     23 C         141.0735  141.9688  163.6313 C.3     1  UNL1        0.1000
     24 C         141.7115  140.1064  167.6778 C.ar    1  UNL1        0.0542
     25 C         142.8903  140.5334  166.8544 C.ar    1  UNL1        0.0043
     26 C         142.6777  141.1542  165.5056 C.ar    1  UNL1       -0.0019
     27 C         141.2862  141.3480  164.9801 C.ar    1  UNL1        0.0045
     28 C         140.1073  140.9210  165.8035 C.ar    1  UNL1        0.0551
     29 CL        138.7158  141.1148  165.2781 Cl      1  UNL1       -0.0825
     30 C         140.3200  140.3002  167.1524 C.ar    1  UNL1        0.0156
     31 O         140.9593  139.7640  170.1409 O.2     1  UNL1       -0.2701
     32 C         141.9241  139.4856  169.0267 C.2     1  UNL1        0.2459
     33 N         143.1016  138.5865  169.2613 N.am    1  UNL1       -0.2994
     34 H         143.7348  138.4038  168.5299 H       1  UNL1        0.1498
     35 C         143.3143  137.9657  170.6101 C.3     1  UNL1        0.1070
     36 C         143.7817  136.5443  170.7163 C.3     1  UNL1        0.0936
     37 N         144.9293  136.1976  171.6179 N.3     1  UNL1       -0.2712
     38 C         144.8591  135.3327  172.8415 C.3     1  UNL1        0.0722
     39 C         146.2350  135.2555  173.4340 C.3     1  UNL1        0.0188
     40 C         147.1555  136.0725  172.5766 C.3     1  UNL1        0.0188
     41 C         146.3485  136.6548  171.4542 C.3     1  UNL1        0.0722
@<TRIPOS>BOND
     1    31    32    2
     2    32    33   am
     3    33    35    1
     4    35    36    1
     5    36    37    1
     6    37    38    1
     7    38    39    1
     8    39    40    1
     9    40    41    1
    10    32    24    1
    11    24    25   ar
    12    25    26   ar
    13    26    27   ar
    14    27    23    1
    15    23     1    1
    16     1     2    1
    17     2     3    1
    18     3     4    1
    19     4     7    1
    20     7     8   am
    21     8     9    2
    22     8    11    1
    23    11    12   ar
    24    12    13   ar
    25    13    14    2
    26    13    15   ar
    27    15    16   ar
    28    16    17   ar
    29    17    18   ar
    30    18    19    1
    31    18    20   ar
    32    20    21   ar
    33    21    22   ar
    34     4     5    1
    35     5     6    1
    36    27    28   ar
    37    28    29    1
    38    28    30   ar
    39    41    37    1
    40    30    24   ar
    41     6     1    1
    42    22    11   ar
    43    21    15   ar
    44    33    34    1
    45     7    10    1
