@<TRIPOS>MOLECULE
*****
 39 42 0 0 0
SMALL
GASTEIGER

@<TRIPOS>ATOM
      1 C         144.4651  142.5723  160.2076 C.3     1  UNL1        0.1204
      2 C         143.1966  143.8000  162.1139 C.2     1  UNL1        0.2469
      3 O         144.4380  144.5762  162.4400 O.2     1  UNL1       -0.2701
      4 N         143.2101  142.7980  160.9977 N.am    1  UNL1       -0.2985
      5 H         142.3953  142.2886  160.7836 H       1  UNL1        0.1498
      6 C         141.5777  142.3682  167.0716 C.2     1  UNL1        0.1019
      7 C         142.8326  142.1424  166.2816 C.2     1  UNL1       -0.0031
      8 C         142.9539  142.6949  164.8924 C.3     1  UNL1        0.0540
      9 C         141.8203  143.4732  164.2931 C.2     1  UNL1       -0.0076
     10 C         141.9416  144.0258  162.9039 C.2     1  UNL1        0.0665
     11 C         140.8080  144.8041  162.3046 C.2     1  UNL1        0.0931
     12 N         139.5530  145.0299  163.0946 N.am    1  UNL1       -0.1740
     13 C         139.4317  144.4774  164.4839 C.2     1  UNL1        0.2688
     14 O         138.1768  144.7032  165.2739 O.2     1  UNL1       -0.2680
     15 C         140.5654  143.6990  165.0831 C.2     1  UNL1        0.0532
     16 C         140.4441  143.1465  166.4724 C.2     1  UNL1        0.0223
     17 C         141.3351  141.2631  169.8501 C.3     1  UNL1        0.1816
     18 S         141.4564  141.8157  168.4608 S.O2    1  UNL1        0.0102
     19 O         142.5344  140.8175  168.1580 O.2     1  UNL1       -0.1686
     20 O         140.3784  142.8138  168.7637 O.2     1  UNL1       -0.1686
     21 C         144.3820  142.0963  158.7876 C.3     1  UNL1        0.1459
     22 O         144.5802  143.0646  157.6592 O.3     1  UNL1       -0.3813
     23 H         144.7513  143.9492  158.0185 H       1  UNL1        0.2105
     24 C         144.1006  140.6521  158.4959 C.3     1  UNL1        0.1034
     25 N         143.1236  139.8923  159.3434 N.3     1  UNL1       -0.2704
     26 C         141.6514  140.1368  159.1928 C.3     1  UNL1        0.0759
     27 C         140.6744  139.3770  160.0403 C.3     1  UNL1        0.0609
     28 C         141.1696  138.3727  161.0383 C.3     1  UNL1        0.1687
     29 C         142.6419  138.1281  161.1889 C.3     1  UNL1        0.0609
     30 C         143.6189  138.8879  160.3414 C.3     1  UNL1        0.0759
     31 O         140.1926  137.6129  161.8857 O.3     1  UNL1       -0.4790
     32 C         139.8530  138.1038  163.2618 C.ar    1  UNL1        0.1393
     33 C         140.3839  139.4228  163.7399 C.ar    1  UNL1        0.0378
     34 C         140.0442  139.9137  165.1159 C.ar    1  UNL1        0.0154
     35 C         139.1736  139.0857  166.0140 C.ar    1  UNL1        0.0684
     36 CL        138.8339  139.5766  167.3900 Cl      1  UNL1       -0.0814
     37 C         138.6427  137.7668  165.5360 C.ar    1  UNL1        0.0712
     38 CL        137.7721  136.9388  166.4340 Cl      1  UNL1       -0.0813
     39 C         138.9823  137.2758  164.1598 C.ar    1  UNL1        0.0491
@<TRIPOS>BOND
     1    17    18    1
     2    18    19    2
     3    18    20    2
     4    18     6    1
     5     6     7    2
     6     7     8    1
     7     8     9    1
     8     9    10    2
     9    10     2    1
    10     2     3    2
    11     2     4   am
    12     4     1    1
    13     1    21    1
    14    21    22    1
    15    21    24    1
    16    24    25    1
    17    25    26    1
    18    26    27    1
    19    27    28    1
    20    28    31    1
    21    31    32    1
    22    32    33   ar
    23    33    34   ar
    24    34    35   ar
    25    35    36    1
    26    35    37   ar
    27    37    38    1
    28    37    39   ar
    29    28    29    1
    30    29    30    1
    31    10    11    1
    32    11    12    2
    33    12    13    1
    34    13    14    2
    35    13    15    1
    36    15    16    2
    37    16     6    1
    38    15     9    1
    39    30    25    1
    40    39    32   ar
    41     4     5    1
    42    22    23    1
@<TRIPOS>MOLECULE
*****
 39 42 0 0 0
SMALL
GASTEIGER

@<TRIPOS>ATOM
      1 C         139.3638  140.3976  169.5038 C.3     1  UNL1        0.1204
      2 C         138.6201  139.3208  167.2594 C.2     1  UNL1        0.2469
      3 O         137.5311  138.5788  167.9762 O.2     1  UNL1       -0.2701
      4 N         139.5364  140.2302  168.0232 N.am    1  UNL1       -0.2985
      5 H         140.2511  140.7171  167.5528 H       1  UNL1        0.1498
      6 C         139.4487  142.7594  163.1680 C.2     1  UNL1        0.1019
      7 C         139.2761  142.9268  164.6486 C.2     1  UNL1       -0.0031
      8 C         139.0574  141.7248  165.5188 C.3     1  UNL1        0.0540
      9 C         139.0113  140.3554  164.9085 C.2     1  UNL1       -0.0076
     10 C         138.7927  139.1534  165.7788 C.2     1  UNL1        0.0665
     11 C         138.7466  137.7840  165.1685 C.2     1  UNL1        0.0931
     12 N         138.9192  137.6165  163.6878 N.am    1  UNL1       -0.1740
     13 C         139.1379  138.8185  162.8176 C.2     1  UNL1        0.2688
     14 O         139.3105  138.6511  161.3370 O.2     1  UNL1       -0.2680
     15 C         139.1839  140.1880  163.4280 C.2     1  UNL1        0.0532
     16 C         139.4026  141.3900  162.5577 C.2     1  UNL1        0.0223
     17 C         139.8860  145.1634  161.4275 C.3     1  UNL1        0.1816
     18 S         139.6673  143.9614  162.2977 S.O2    1  UNL1        0.0102
     19 O         138.1935  144.2402  162.3124 O.2     1  UNL1       -0.1686
     20 O         141.1411  143.6827  162.2830 O.2     1  UNL1       -0.1686
     21 C         140.5559  140.6729  170.3715 C.3     1  UNL1        0.1459
     22 O         140.5001  140.3725  171.8401 O.3     1  UNL1       -0.3813
     23 H         139.6291  140.0082  172.0628 H       1  UNL1        0.2105
     24 C         141.8039  141.2485  169.7707 C.3     1  UNL1        0.1034
     25 N         142.3184  140.7229  168.4634 N.3     1  UNL1       -0.2704
     26 C         142.7022  139.2786  168.3346 C.3     1  UNL1        0.0759
     27 C         143.2167  138.7530  167.0273 C.3     1  UNL1        0.0609
     28 C         143.3474  139.6717  165.8488 C.3     1  UNL1        0.1687
     29 C         142.9636  141.1161  165.9776 C.3     1  UNL1        0.0609
     30 C         142.4491  141.6417  167.2848 C.3     1  UNL1        0.0759
     31 O         143.8619  139.1460  164.5415 O.3     1  UNL1       -0.4790
     32 C         143.9108  140.0424  163.3398 C.ar    1  UNL1        0.1393
     33 C         145.0317  141.0269  163.1836 C.ar    1  UNL1        0.0378
     34 C         145.0806  141.9233  161.9819 C.ar    1  UNL1        0.0154
     35 C         144.0087  141.8351  160.9364 C.ar    1  UNL1        0.0684
     36 CL        144.0576  142.7315  159.7347 Cl      1  UNL1       -0.0814
     37 C         142.8878  140.8506  161.0925 C.ar    1  UNL1        0.0712
     38 CL        141.8159  140.7625  160.0469 Cl      1  UNL1       -0.0813
     39 C         142.8389  139.9542  162.2942 C.ar    1  UNL1        0.0491
@<TRIPOS>BOND
     1    17    18    1
     2    18    19    2
     3    18    20    2
     4    18     6    1
     5     6     7    2
     6     7     8    1
     7     8     9    1
     8     9    10    2
     9    10     2    1
    10     2     3    2
    11     2     4   am
    12     4     1    1
    13     1    21    1
    14    21    22    1
    15    21    24    1
    16    24    25    1
    17    25    26    1
    18    26    27    1
    19    27    28    1
    20    28    31    1
    21    31    32    1
    22    32    33   ar
    23    33    34   ar
    24    34    35   ar
    25    35    36    1
    26    35    37   ar
    27    37    38    1
    28    37    39   ar
    29    28    29    1
    30    29    30    1
    31    10    11    1
    32    11    12    2
    33    12    13    1
    34    13    14    2
    35    13    15    1
    36    15    16    2
    37    16     6    1
    38    15     9    1
    39    30    25    1
    40    39    32   ar
    41     4     5    1
    42    22    23    1
@<TRIPOS>MOLECULE
*****
 39 42 0 0 0
SMALL
GASTEIGER

@<TRIPOS>ATOM
      1 C         141.5337  145.1075  159.2215 C.3     1  UNL1        0.1204
      2 C         141.4802  144.8042  161.8013 C.2     1  UNL1        0.2469
      3 O         140.3817  145.8212  161.8980 O.2     1  UNL1       -0.2701
      4 N         142.0561  144.4474  160.4631 N.am    1  UNL1       -0.2985
      5 H         142.7770  143.7799  160.3996 H       1  UNL1        0.1498
      6 C         139.5771  140.9500  165.0835 C.2     1  UNL1        0.1019
      7 C         139.0548  141.6100  163.8420 C.2     1  UNL1       -0.0031
      8 C         139.8632  142.6748  163.1618 C.3     1  UNL1        0.0540
      9 C         141.1941  143.0794  163.7231 C.2     1  UNL1       -0.0076
     10 C         142.0025  144.1442  163.0428 C.2     1  UNL1        0.0665
     11 C         143.3334  144.5488  163.6041 C.2     1  UNL1        0.0931
     12 N         143.8558  143.8887  164.8457 N.am    1  UNL1       -0.1740
     13 C         143.0473  142.8240  165.5259 C.2     1  UNL1        0.2688
     14 O         143.5697  142.1639  166.7674 O.2     1  UNL1       -0.2680
     15 C         141.7164  142.4194  164.9646 C.2     1  UNL1        0.0532
     16 C         140.9080  141.3546  165.6448 C.2     1  UNL1        0.0223
     17 C         137.9602  138.8205  166.4440 C.3     1  UNL1        0.1816
     18 S         138.7687  139.8852  165.7638 S.O2    1  UNL1        0.0102
     19 O         138.1565  139.5088  164.4471 O.2     1  UNL1       -0.1686
     20 O         139.3808  140.2616  167.0804 O.2     1  UNL1       -0.1686
     21 C         141.6987  144.4374  157.8897 C.3     1  UNL1        0.1459
     22 O         142.6741  144.9851  156.8903 O.3     1  UNL1       -0.3813
     23 H         143.1115  145.7676  157.2607 H       1  UNL1        0.2105
     24 C         140.8883  143.2198  157.5572 C.3     1  UNL1        0.1034
     25 N         141.0323  141.9749  158.3816 N.3     1  UNL1       -0.2704
     26 C         140.0186  141.6546  159.4397 C.3     1  UNL1        0.0759
     27 C         140.1626  140.4098  160.2641 C.3     1  UNL1        0.0609
     28 C         141.3204  139.4852  160.0303 C.3     1  UNL1        0.1687
     29 C         142.3342  139.8055  158.9722 C.3     1  UNL1        0.0609
     30 C         142.1902  141.0503  158.1478 C.3     1  UNL1        0.0759
     31 O         141.4644  138.2403  160.8547 O.3     1  UNL1       -0.4790
     32 C         141.9567  138.3300  162.2688 C.ar    1  UNL1        0.1393
     33 C         141.1873  137.6693  163.3741 C.ar    1  UNL1        0.0378
     34 C         141.6795  137.7590  164.7881 C.ar    1  UNL1        0.0154
     35 C         142.9411  138.5093  165.0970 C.ar    1  UNL1        0.0684
     36 CL        143.4334  138.5989  166.5110 Cl      1  UNL1       -0.0814
     37 C         143.7105  139.1699  163.9917 C.ar    1  UNL1        0.0712
     38 CL        144.9721  139.9202  164.3006 Cl      1  UNL1       -0.0813
     39 C         143.2183  139.0803  162.5776 C.ar    1  UNL1        0.0491
@<TRIPOS>BOND
     1    17    18    1
     2    18    19    2
     3    18    20    2
     4    18     6    1
     5     6     7    2
     6     7     8    1
     7     8     9    1
     8     9    10    2
     9    10     2    1
    10     2     3    2
    11     2     4   am
    12     4     1    1
    13     1    21    1
    14    21    22    1
    15    21    24    1
    16    24    25    1
    17    25    26    1
    18    26    27    1
    19    27    28    1
    20    28    31    1
    21    31    32    1
    22    32    33   ar
    23    33    34   ar
    24    34    35   ar
    25    35    36    1
    26    35    37   ar
    27    37    38    1
    28    37    39   ar
    29    28    29    1
    30    29    30    1
    31    10    11    1
    32    11    12    2
    33    12    13    1
    34    13    14    2
    35    13    15    1
    36    15    16    2
    37    16     6    1
    38    15     9    1
    39    30    25    1
    40    39    32   ar
    41     4     5    1
    42    22    23    1
@<TRIPOS>MOLECULE
*****
 39 42 0 0 0
SMALL
GASTEIGER

@<TRIPOS>ATOM
      1 C         140.7539  142.9137  169.2979 C.3     1  UNL1        0.1204
      2 C         141.2420  142.7930  166.7489 C.2     1  UNL1        0.2469
      3 O         139.7687  142.7651  166.4681 O.2     1  UNL1       -0.2701
      4 N         141.7346  142.8673  168.1637 N.am    1  UNL1       -0.2985
      5 H         142.7015  142.8856  168.3480 H       1  UNL1        0.1498
      6 C         141.1484  144.5537  161.6360 C.2     1  UNL1        0.1019
      7 C         140.1678  144.6000  162.7701 C.2     1  UNL1       -0.0031
      8 C         140.5258  143.9977  164.0964 C.3     1  UNL1        0.0540
      9 C         141.8645  143.3489  164.2885 C.2     1  UNL1       -0.0076
     10 C         142.2226  142.7466  165.6148 C.2     1  UNL1        0.0665
     11 C         143.5613  142.0978  165.8070 C.2     1  UNL1        0.0931
     12 N         144.5420  142.0514  164.6728 N.am    1  UNL1       -0.1740
     13 C         144.1839  142.6538  163.3466 C.2     1  UNL1        0.2688
     14 O         145.1645  142.6074  162.2125 O.2     1  UNL1       -0.2680
     15 C         142.8451  143.3026  163.1545 C.2     1  UNL1        0.0532
     16 C         142.4871  143.9049  161.8282 C.2     1  UNL1        0.0223
     17 C         140.4322  145.7584  158.9835 C.3     1  UNL1        0.1816
     18 S         140.7903  145.1560  160.3098 S.O2    1  UNL1        0.0102
     19 O         142.0630  144.6212  159.7232 O.2     1  UNL1       -0.1686
     20 O         139.5175  145.6908  160.8963 O.2     1  UNL1       -0.1686
     21 C         140.7646  141.8378  170.3431 C.3     1  UNL1        0.1459
     22 O         140.5357  142.1891  171.7833 O.3     1  UNL1       -0.3813
     23 H         140.3982  143.1459  171.8649 H       1  UNL1        0.2105
     24 C         141.0042  140.4108  169.9481 C.3     1  UNL1        0.1034
     25 N         140.6393  139.9425  168.5706 N.3     1  UNL1       -0.2704
     26 C         141.7158  139.5568  167.5999 C.3     1  UNL1        0.0759
     27 C         141.3509  139.0885  166.2224 C.3     1  UNL1        0.0609
     28 C         139.9095  139.0058  165.8156 C.3     1  UNL1        0.1687
     29 C         138.8329  139.3914  166.7864 C.3     1  UNL1        0.0609
     30 C         139.1978  139.8598  168.1639 C.3     1  UNL1        0.0759
     31 O         139.5446  138.5374  164.4381 O.3     1  UNL1       -0.4790
     32 C         139.2607  139.5373  163.3566 C.ar    1  UNL1        0.1393
     33 C         137.9433  140.2538  163.3246 C.ar    1  UNL1        0.0378
     34 C         137.6594  141.2537  162.2432 C.ar    1  UNL1        0.0154
     35 C         138.6929  141.5372  161.1937 C.ar    1  UNL1        0.0684
     36 CL        138.4091  142.5371  160.1122 Cl      1  UNL1       -0.0814
     37 C         140.0104  140.8208  161.2257 C.ar    1  UNL1        0.0712
     38 CL        141.0439  141.1042  160.1762 Cl      1  UNL1       -0.0813
     39 C         140.2943  139.8208  162.3072 C.ar    1  UNL1        0.0491
@<TRIPOS>BOND
     1    17    18    1
     2    18    19    2
     3    18    20    2
     4    18     6    1
     5     6     7    2
     6     7     8    1
     7     8     9    1
     8     9    10    2
     9    10     2    1
    10     2     3    2
    11     2     4   am
    12     4     1    1
    13     1    21    1
    14    21    22    1
    15    21    24    1
    16    24    25    1
    17    25    26    1
    18    26    27    1
    19    27    28    1
    20    28    31    1
    21    31    32    1
    22    32    33   ar
    23    33    34   ar
    24    34    35   ar
    25    35    36    1
    26    35    37   ar
    27    37    38    1
    28    37    39   ar
    29    28    29    1
    30    29    30    1
    31    10    11    1
    32    11    12    2
    33    12    13    1
    34    13    14    2
    35    13    15    1
    36    15    16    2
    37    16     6    1
    38    15     9    1
    39    30    25    1
    40    39    32   ar
    41     4     5    1
    42    22    23    1
@<TRIPOS>MOLECULE
*****
 39 42 0 0 0
SMALL
GASTEIGER

@<TRIPOS>ATOM
      1 C         140.7253  143.4410  158.0178 C.3     1  UNL1        0.1204
      2 C         140.6169  141.0813  159.0995 C.2     1  UNL1        0.2469
      3 O         141.6535  140.5905  158.1327 O.2     1  UNL1       -0.2701
      4 N         140.1528  142.5066  159.0421 N.am    1  UNL1       -0.2985
      5 H         139.4725  142.8287  159.6766 H       1  UNL1        0.1498
      6 C         142.4189  139.1143  163.8042 C.2     1  UNL1        0.1019
      7 C         142.9914  140.0488  162.7800 C.2     1  UNL1       -0.0031
      8 C         142.1999  140.3930  161.5531 C.3     1  UNL1        0.0540
      9 C         140.8359  139.8027  161.3505 C.2     1  UNL1       -0.0076
     10 C         140.0444  140.1469  160.1237 C.2     1  UNL1        0.0665
     11 C         138.6804  139.5566  159.9211 C.2     1  UNL1        0.0931
     12 N         138.1079  138.6221  160.9453 N.am    1  UNL1       -0.1740
     13 C         138.8994  138.2779  162.1721 C.2     1  UNL1        0.2688
     14 O         138.3269  137.3434  163.1963 O.2     1  UNL1       -0.2680
     15 C         140.2634  138.8682  162.3747 C.2     1  UNL1        0.0532
     16 C         141.0549  138.5241  163.6015 C.2     1  UNL1        0.0223
     17 C         144.0019  138.4260  166.2578 C.3     1  UNL1        0.1816
     18 S         143.2104  138.7702  165.0310 S.O2    1  UNL1        0.0102
     19 O         144.4046  139.4741  164.4580 O.2     1  UNL1       -0.1686
     20 O         142.0162  138.0662  165.6039 O.2     1  UNL1       -0.1686
     21 C         141.6714  144.5264  158.4385 C.3     1  UNL1        0.1459
     22 O         143.0509  144.5876  157.8525 O.3     1  UNL1       -0.3813
     23 H         143.1678  143.8582  157.2239 H       1  UNL1        0.2105
     24 C         141.2380  145.5506  159.4450 C.3     1  UNL1        0.1034
     25 N         141.0099  145.1497  160.8724 N.3     1  UNL1       -0.2704
     26 C         142.0022  144.2686  161.5716 C.3     1  UNL1        0.0759
     27 C         141.7742  143.8678  162.9990 C.3     1  UNL1        0.0609
     28 C         140.5539  144.3480  163.7271 C.3     1  UNL1        0.1687
     29 C         139.5615  145.2292  163.0278 C.3     1  UNL1        0.0609
     30 C         139.7895  145.6300  161.6005 C.3     1  UNL1        0.0759
     31 O         140.3259  143.9472  165.1544 O.3     1  UNL1       -0.4790
     32 C         139.7851  142.5850  165.4737 C.ar    1  UNL1        0.1393
     33 C         138.7355  141.9701  164.5959 C.ar    1  UNL1        0.0378
     34 C         138.1947  140.6079  164.9152 C.ar    1  UNL1        0.0154
     35 C         138.7034  139.8606  166.1121 C.ar    1  UNL1        0.0684
     36 CL        138.1626  138.4984  166.4314 Cl      1  UNL1       -0.0814
     37 C         139.7529  140.4754  166.9899 C.ar    1  UNL1        0.0712
     38 CL        140.2616  139.7281  168.1868 Cl      1  UNL1       -0.0813
     39 C         140.2938  141.8377  166.6706 C.ar    1  UNL1        0.0491
@<TRIPOS>BOND
     1    17    18    1
     2    18    19    2
     3    18    20    2
     4    18     6    1
     5     6     7    2
     6     7     8    1
     7     8     9    1
     8     9    10    2
     9    10     2    1
    10     2     3    2
    11     2     4   am
    12     4     1    1
    13     1    21    1
    14    21    22    1
    15    21    24    1
    16    24    25    1
    17    25    26    1
    18    26    27    1
    19    27    28    1
    20    28    31    1
    21    31    32    1
    22    32    33   ar
    23    33    34   ar
    24    34    35   ar
    25    35    36    1
    26    35    37   ar
    27    37    38    1
    28    37    39   ar
    29    28    29    1
    30    29    30    1
    31    10    11    1
    32    11    12    2
    33    12    13    1
    34    13    14    2
    35    13    15    1
    36    15    16    2
    37    16     6    1
    38    15     9    1
    39    30    25    1
    40    39    32   ar
    41     4     5    1
    42    22    23    1
@<TRIPOS>MOLECULE
*****
 39 42 0 0 0
SMALL
GASTEIGER

@<TRIPOS>ATOM
      1 C         143.0058  143.7781  158.2641 C.3     1  UNL1        0.1204
      2 C         143.3530  142.4288  160.4570 C.2     1  UNL1        0.2469
      3 O         144.3687  143.4335  160.9143 O.2     1  UNL1       -0.2701
      4 N         142.6716  142.6011  159.1319 N.am    1  UNL1       -0.2985
      5 H         142.0050  141.9417  158.8317 H       1  UNL1        0.1498
      6 C         141.5461  141.9008  165.5271 C.2     1  UNL1        0.1019
      7 C         141.8802  143.0778  164.6593 C.2     1  UNL1       -0.0031
      8 C         142.3712  142.8615  163.2586 C.3     1  UNL1        0.0540
      9 C         142.5279  141.4682  162.7256 C.2     1  UNL1       -0.0076
     10 C         143.0189  141.2518  161.3248 C.2     1  UNL1        0.0665
     11 C         143.1756  139.8586  160.7918 C.2     1  UNL1        0.0931
     12 N         142.8415  138.6815  161.6596 N.am    1  UNL1       -0.1740
     13 C         142.3505  138.8978  163.0603 C.2     1  UNL1        0.2688
     14 O         142.0164  137.7209  163.9281 O.2     1  UNL1       -0.2680
     15 C         142.1938  140.2912  163.5933 C.2     1  UNL1        0.0532
     16 C         141.7028  140.5076  164.9941 C.2     1  UNL1        0.0223
     17 C         140.5642  142.3335  168.3287 C.3     1  UNL1        0.1816
     18 S         141.0551  142.1172  166.9279 S.O2    1  UNL1        0.0102
     19 O         141.8241  140.9125  167.3834 O.2     1  UNL1       -0.1686
     20 O         140.2862  143.3218  166.4724 O.2     1  UNL1       -0.1686
     21 C         142.0168  144.8940  158.1003 C.3     1  UNL1        0.1459
     22 O         142.4986  146.3052  157.9373 O.3     1  UNL1       -0.3813
     23 H         143.4682  146.3205  157.9600 H       1  UNL1        0.2105
     24 C         140.5462  144.5987  158.0995 C.3     1  UNL1        0.1034
     25 N         139.8776  144.1157  159.3524 N.3     1  UNL1       -0.2704
     26 C         138.9646  142.9265  159.3046 C.3     1  UNL1        0.0759
     27 C         138.2960  142.4435  160.5575 C.3     1  UNL1        0.0609
     28 C         138.5403  143.1497  161.8581 C.3     1  UNL1        0.1687
     29 C         139.4532  144.3390  161.9059 C.3     1  UNL1        0.0609
     30 C         140.1219  144.8220  160.6530 C.3     1  UNL1        0.0759
     31 O         137.8716  142.6667  163.1109 O.3     1  UNL1       -0.4790
     32 C         138.1271  141.2750  163.6087 C.ar    1  UNL1        0.1393
     33 C         138.4492  140.1783  162.6373 C.ar    1  UNL1        0.0378
     34 C         138.7048  138.7866  163.1352 C.ar    1  UNL1        0.0154
     35 C         138.6382  138.4916  164.6043 C.ar    1  UNL1        0.0684
     36 CL        138.8937  137.0999  165.1021 Cl      1  UNL1       -0.0814
     37 C         138.3161  139.5882  165.5757 C.ar    1  UNL1        0.0712
     38 CL        138.2496  139.2931  167.0449 Cl      1  UNL1       -0.0813
     39 C         138.0606  140.9800  165.0779 C.ar    1  UNL1        0.0491
@<TRIPOS>BOND
     1    17    18    1
     2    18    19    2
     3    18    20    2
     4    18     6    1
     5     6     7    2
     6     7     8    1
     7     8     9    1
     8     9    10    2
     9    10     2    1
    10     2     3    2
    11     2     4   am
    12     4     1    1
    13     1    21    1
    14    21    22    1
    15    21    24    1
    16    24    25    1
    17    25    26    1
    18    26    27    1
    19    27    28    1
    20    28    31    1
    21    31    32    1
    22    32    33   ar
    23    33    34   ar
    24    34    35   ar
    25    35    36    1
    26    35    37   ar
    27    37    38    1
    28    37    39   ar
    29    28    29    1
    30    29    30    1
    31    10    11    1
    32    11    12    2
    33    12    13    1
    34    13    14    2
    35    13    15    1
    36    15    16    2
    37    16     6    1
    38    15     9    1
    39    30    25    1
    40    39    32   ar
    41     4     5    1
    42    22    23    1
@<TRIPOS>MOLECULE
*****
 39 42 0 0 0
SMALL
GASTEIGER

@<TRIPOS>ATOM
      1 C         143.3238  143.6103  158.3802 C.3     1  UNL1        0.1204
      2 C         141.0168  143.5694  159.5744 C.2     1  UNL1        0.2469
      3 O         140.3653  143.1199  158.3002 O.2     1  UNL1       -0.2701
      4 N         142.4961  143.8146  159.6144 N.am    1  UNL1       -0.2985
      5 H         142.9238  144.1097  160.4506 H       1  UNL1        0.1498
      6 C         139.4606  140.3389  163.6231 C.2     1  UNL1        0.1019
      7 C         140.2883  140.1347  162.3890 C.2     1  UNL1       -0.0031
      8 C         140.5311  141.2796  161.4508 C.3     1  UNL1        0.0540
      9 C         139.9463  142.6287  161.7467 C.2     1  UNL1       -0.0076
     10 C         140.1891  143.7737  160.8085 C.2     1  UNL1        0.0665
     11 C         139.6043  145.1228  161.1045 C.2     1  UNL1        0.0931
     12 N         138.7765  145.3271  162.3387 N.am    1  UNL1       -0.1740
     13 C         138.5336  144.1822  163.2768 C.2     1  UNL1        0.2688
     14 O         137.7059  144.3865  164.5110 O.2     1  UNL1       -0.2680
     15 C         139.1186  142.8330  162.9809 C.2     1  UNL1        0.0532
     16 C         138.8757  141.6881  163.9190 C.2     1  UNL1        0.0223
     17 C         138.9748  138.0491  165.4995 C.3     1  UNL1        0.1816
     18 S         139.2177  139.1940  164.5613 S.O2    1  UNL1        0.0102
     19 O         140.4196  138.4866  164.0091 O.2     1  UNL1       -0.1686
     20 O         138.0158  139.9014  165.1135 O.2     1  UNL1       -0.1686
     21 C         144.3722  142.5379  158.3492 C.3     1  UNL1        0.1459
     22 O         145.7611  142.8601  157.8831 O.3     1  UNL1       -0.3813
     23 H         145.8113  143.7979  157.6404 H       1  UNL1        0.2105
     24 C         144.0316  141.1434  158.7843 C.3     1  UNL1        0.1034
     25 N         144.1390  140.7619  160.2310 N.3     1  UNL1       -0.2704
     26 C         144.6744  141.7459  161.2285 C.3     1  UNL1        0.0759
     27 C         144.7818  141.3644  162.6751 C.3     1  UNL1        0.0609
     28 C         144.3538  139.9987  163.1244 C.3     1  UNL1        0.1687
     29 C         143.8184  139.0146  162.1269 C.3     1  UNL1        0.0609
     30 C         143.7110  139.3962  160.6802 C.3     1  UNL1        0.0759
     31 O         144.4612  139.6172  164.5710 O.3     1  UNL1       -0.4790
     32 C         143.3719  139.9970  165.5297 C.ar    1  UNL1        0.1393
     33 C         142.9894  139.0624  166.6389 C.ar    1  UNL1        0.0378
     34 C         141.9001  139.4422  167.5976 C.ar    1  UNL1        0.0154
     35 C         141.1932  140.7566  167.4471 C.ar    1  UNL1        0.0684
     36 CL        140.1039  141.1364  168.4058 Cl      1  UNL1       -0.0814
     37 C         141.5756  141.6912  166.3380 C.ar    1  UNL1        0.0712
     38 CL        140.8688  143.0056  166.1875 Cl      1  UNL1       -0.0813
     39 C         142.6650  141.3114  165.3793 C.ar    1  UNL1        0.0491
@<TRIPOS>BOND
     1    17    18    1
     2    18    19    2
     3    18    20    2
     4    18     6    1
     5     6     7    2
     6     7     8    1
     7     8     9    1
     8     9    10    2
     9    10     2    1
    10     2     3    2
    11     2     4   am
    12     4     1    1
    13     1    21    1
    14    21    22    1
    15    21    24    1
    16    24    25    1
    17    25    26    1
    18    26    27    1
    19    27    28    1
    20    28    31    1
    21    31    32    1
    22    32    33   ar
    23    33    34   ar
    24    34    35   ar
    25    35    36    1
    26    35    37   ar
    27    37    38    1
    28    37    39   ar
    29    28    29    1
    30    29    30    1
    31    10    11    1
    32    11    12    2
    33    12    13    1
    34    13    14    2
    35    13    15    1
    36    15    16    2
    37    16     6    1
    38    15     9    1
    39    30    25    1
    40    39    32   ar
    41     4     5    1
    42    22    23    1
@<TRIPOS>MOLECULE
*****
 39 42 0 0 0
SMALL
GASTEIGER

@<TRIPOS>ATOM
      1 C         142.5827  138.1211  158.3106 C.3     1  UNL1        0.1204
      2 C         142.6648  138.6875  160.8448 C.2     1  UNL1        0.2469
      3 O         142.2014  137.2984  161.1702 O.2     1  UNL1       -0.2701
      4 N         142.8555  139.0989  159.4150 N.am    1  UNL1       -0.2985
      5 H         143.1596  140.0105  159.2014 H       1  UNL1        0.1498
      6 C         141.0037  143.7279  161.8863 C.2     1  UNL1        0.1019
      7 C         140.7309  142.7503  160.7819 C.2     1  UNL1       -0.0031
      8 C         141.3756  141.3960  160.8029 C.3     1  UNL1        0.0540
      9 C         142.2929  141.0194  161.9283 C.2     1  UNL1       -0.0076
     10 C         142.9375  139.6651  161.9493 C.2     1  UNL1        0.0665
     11 C         143.8548  139.2885  163.0747 C.2     1  UNL1        0.0931
     12 N         144.1276  140.2662  164.1792 N.am    1  UNL1       -0.1740
     13 C         143.4830  141.6205  164.1582 C.2     1  UNL1        0.2688
     14 O         143.7557  142.5981  165.2626 O.2     1  UNL1       -0.2680
     15 C         142.5656  141.9971  163.0327 C.2     1  UNL1        0.0532
     16 C         141.9210  143.3513  163.0117 C.2     1  UNL1        0.0223
     17 C         139.7144  146.4365  161.8443 C.3     1  UNL1        0.1816
     18 S         140.3590  145.0822  161.8653 S.O2    1  UNL1        0.0102
     19 O         141.2493  145.5234  162.9890 O.2     1  UNL1       -0.1686
     20 O         139.4688  144.6410  160.7415 O.2     1  UNL1       -0.1686
     21 C         141.4978  138.4000  157.3130 C.3     1  UNL1        0.1459
     22 O         141.8359  139.0261  155.9925 O.3     1  UNL1       -0.3813
     23 H         142.7916  139.1851  155.9453 H       1  UNL1        0.2105
     24 C         140.0747  138.0528  157.6360 C.3     1  UNL1        0.1034
     25 N         139.3588  138.7735  158.7396 N.3     1  UNL1       -0.2704
     26 C         139.2096  138.1266  160.0847 C.3     1  UNL1        0.0759
     27 C         138.4937  138.8473  161.1883 C.3     1  UNL1        0.0609
     28 C         137.9268  140.2149  160.9468 C.3     1  UNL1        0.1687
     29 C         138.0760  140.8619  159.6017 C.3     1  UNL1        0.0609
     30 C         138.7919  140.1412  158.4981 C.3     1  UNL1        0.0759
     31 O         137.2109  140.9357  162.0504 O.3     1  UNL1       -0.4790
     32 C         137.9821  141.4723  163.2197 C.ar    1  UNL1        0.1393
     33 C         138.9195  140.5769  163.9745 C.ar    1  UNL1        0.0378
     34 C         139.6907  141.1135  165.1438 C.ar    1  UNL1        0.0154
     35 C         139.5246  142.5455  165.5583 C.ar    1  UNL1        0.0684
     36 CL        140.2959  143.0822  166.7275 Cl      1  UNL1       -0.0814
     37 C         138.5874  143.4409  164.8035 C.ar    1  UNL1        0.0712
     38 CL        138.4213  144.8729  165.2179 Cl      1  UNL1       -0.0813
     39 C         137.8161  142.9043  163.6341 C.ar    1  UNL1        0.0491
@<TRIPOS>BOND
     1    17    18    1
     2    18    19    2
     3    18    20    2
     4    18     6    1
     5     6     7    2
     6     7     8    1
     7     8     9    1
     8     9    10    2
     9    10     2    1
    10     2     3    2
    11     2     4   am
    12     4     1    1
    13     1    21    1
    14    21    22    1
    15    21    24    1
    16    24    25    1
    17    25    26    1
    18    26    27    1
    19    27    28    1
    20    28    31    1
    21    31    32    1
    22    32    33   ar
    23    33    34   ar
    24    34    35   ar
    25    35    36    1
    26    35    37   ar
    27    37    38    1
    28    37    39   ar
    29    28    29    1
    30    29    30    1
    31    10    11    1
    32    11    12    2
    33    12    13    1
    34    13    14    2
    35    13    15    1
    36    15    16    2
    37    16     6    1
    38    15     9    1
    39    30    25    1
    40    39    32   ar
    41     4     5    1
    42    22    23    1
@<TRIPOS>MOLECULE
*****
 39 42 0 0 0
SMALL
GASTEIGER

@<TRIPOS>ATOM
      1 C         142.3336  140.5707  156.5870 C.3     1  UNL1        0.1204
      2 C         142.1206  142.9069  157.7038 C.2     1  UNL1        0.2469
      3 O         143.0199  143.4904  156.6546 O.2     1  UNL1       -0.2701
      4 N         141.7774  141.4470  157.6700 N.am    1  UNL1       -0.2985
      5 H         141.1872  141.0640  158.3586 H       1  UNL1        0.1498
      6 C         143.4512  143.7832  162.8721 C.2     1  UNL1        0.1019
      7 C         144.0073  142.9069  161.7892 C.2     1  UNL1       -0.0031
      8 C         143.3784  142.9069  160.4274 C.3     1  UNL1        0.0540
      9 C         142.1934  143.7832  160.1485 C.2     1  UNL1       -0.0076
     10 C         141.5645  143.7832  158.7868 C.2     1  UNL1        0.0665
     11 C         140.3795  144.6594  158.5079 C.2     1  UNL1        0.0931
     12 N         139.8233  145.5358  159.5909 N.am    1  UNL1       -0.1740
     13 C         140.4522  145.5358  160.9527 C.2     1  UNL1        0.2688
     14 O         139.8961  146.4121  162.0356 O.2     1  UNL1       -0.2680
     15 C         141.6373  144.6595  161.2315 C.2     1  UNL1        0.0532
     16 C         142.2662  144.6595  162.5933 C.2     1  UNL1        0.0223
     17 C         144.7091  143.7832  165.5957 C.3     1  UNL1        0.1816
     18 S         144.0802  143.7832  164.2339 S.O2    1  UNL1        0.0102
     19 O         144.3427  142.3113  164.1127 O.2     1  UNL1       -0.1686
     20 O         143.8177  145.2551  164.3551 O.2     1  UNL1       -0.1686
     21 C         143.1743  139.3806  156.9430 C.3     1  UNL1        0.1459
     22 O         144.5753  139.2683  156.4189 O.3     1  UNL1       -0.3813
     23 H         144.7786  140.0424  155.8708 H       1  UNL1        0.2105
     24 C         142.6141  138.3028  157.8230 C.3     1  UNL1        0.1034
     25 N         142.2560  138.6080  159.2473 N.3     1  UNL1       -0.2704
     26 C         143.3014  139.1293  160.1883 C.3     1  UNL1        0.0759
     27 C         142.9433  139.4346  161.6125 C.3     1  UNL1        0.0609
     28 C         141.5399  139.2185  162.0959 C.3     1  UNL1        0.1687
     29 C         140.4944  138.6972  161.1549 C.3     1  UNL1        0.0609
     30 C         140.8525  138.3920  159.7306 C.3     1  UNL1        0.0759
     31 O         141.1818  139.5238  163.5201 O.3     1  UNL1       -0.4790
     32 C         140.6315  140.8712  163.8829 C.ar    1  UNL1        0.1393
     33 C         141.1169  141.5721  165.1171 C.ar    1  UNL1        0.0378
     34 C         140.5667  142.9196  165.4798 C.ar    1  UNL1        0.0154
     35 C         139.5310  143.5661  164.6085 C.ar    1  UNL1        0.0684
     36 CL        138.9807  144.9135  164.9712 Cl      1  UNL1       -0.0814
     37 C         139.0456  142.8653  163.3743 C.ar    1  UNL1        0.0712
     38 CL        138.0099  143.5119  162.5029 Cl      1  UNL1       -0.0813
     39 C         139.5958  141.5178  163.0115 C.ar    1  UNL1        0.0491
@<TRIPOS>BOND
     1    17    18    1
     2    18    19    2
     3    18    20    2
     4    18     6    1
     5     6     7    2
     6     7     8    1
     7     8     9    1
     8     9    10    2
     9    10     2    1
    10     2     3    2
    11     2     4   am
    12     4     1    1
    13     1    21    1
    14    21    22    1
    15    21    24    1
    16    24    25    1
    17    25    26    1
    18    26    27    1
    19    27    28    1
    20    28    31    1
    21    31    32    1
    22    32    33   ar
    23    33    34   ar
    24    34    35   ar
    25    35    36    1
    26    35    37   ar
    27    37    38    1
    28    37    39   ar
    29    28    29    1
    30    29    30    1
    31    10    11    1
    32    11    12    2
    33    12    13    1
    34    13    14    2
    35    13    15    1
    36    15    16    2
    37    16     6    1
    38    15     9    1
    39    30    25    1
    40    39    32   ar
    41     4     5    1
    42    22    23    1
