@<TRIPOS>MOLECULE
*****
 28 31 0 0 0
SMALL
GASTEIGER

@<TRIPOS>ATOM
      1 C         139.5920  141.7261  164.2756 C.ar    1  UNL1        0.0681
      2 C         138.4922  142.7368  164.1380 C.ar    1  UNL1        0.0208
      3 C         137.9943  143.1226  162.7767 C.ar    1  UNL1        0.0384
      4 C         138.5962  142.4978  161.5531 C.ar    1  UNL1        0.1386
      5 C         139.6960  141.4871  161.6907 C.ar    1  UNL1        0.0384
      6 C         140.1939  141.1012  163.0520 C.ar    1  UNL1        0.0208
      7 C         138.1863  139.5832  165.8351 C.3     1  UNL1        0.0723
      8 C         139.3871  140.2687  166.4167 C.ar    1  UNL1        0.1268
      9 N         139.8850  139.8828  167.7780 N.ar    1  UNL1       -0.2296
     10 C         141.0858  140.5684  168.3596 C.ar    1  UNL1        0.1145
     11 C         141.5836  140.1825  169.7209 C.ar    1  UNL1        0.1578
     12 F         140.8808  139.1111  170.5007 F       1  UNL1       -0.2026
     13 C         142.7843  140.8681  170.3025 C.ar    1  UNL1        0.0312
     14 C         143.4872  141.9395  169.5227 C.ar    1  UNL1        0.0026
     15 C         142.9893  142.3254  168.1614 C.ar    1  UNL1        0.0064
     16 C         141.7886  141.6399  167.5799 C.ar    1  UNL1        0.0764
     17 C         141.2907  142.0257  166.2185 C.ar    1  UNL1        0.2670
     18 O         141.9935  143.0972  165.4388 O.2     1  UNL1       -0.2665
     19 N         140.0900  141.3402  165.6370 N.ar    1  UNL1       -0.2626
     20 O         138.0982  142.8837  160.1917 O.3     1  UNL1       -0.4754
     21 C         138.9649  142.6667  158.9868 C.3     1  UNL1        0.2068
     22 C         139.5722  143.8411  158.2784 C.3     1  UNL1        0.0646
     23 C         140.8291  144.4673  158.8058 C.3     1  UNL1        0.0759
     24 N         140.9439  144.8065  160.2624 N.3     1  UNL1       -0.2726
     25 C         140.0650  145.7589  161.0178 C.3     1  UNL1        0.0721
     26 C         140.5356  145.7940  162.4417 C.3     1  UNL1        0.0188
     27 C         141.7054  144.8633  162.5663 C.3     1  UNL1        0.0188
     28 C         141.9577  144.2530  161.2194 C.3     1  UNL1        0.0721
@<TRIPOS>BOND
     1     7     8    1
     2     8     9   ar
     3     9    10   ar
     4    10    11   ar
     5    11    12    1
     6    11    13   ar
     7    13    14   ar
     8    14    15   ar
     9    15    16   ar
    10    16    17   ar
    11    17    18    2
    12    17    19   ar
    13    19     1    1
    14     1     2   ar
    15     2     3   ar
    16     3     4   ar
    17     4    20    1
    18    20    21    1
    19    21    22    1
    20    22    23    1
    21    23    24    1
    22    24    25    1
    23    25    26    1
    24    26    27    1
    25    27    28    1
    26     4     5   ar
    27     5     6   ar
    28    19     8   ar
    29     6     1   ar
    30    16    10   ar
    31    28    24    1
@<TRIPOS>MOLECULE
*****
 28 31 0 0 0
SMALL
GASTEIGER

@<TRIPOS>ATOM
      1 C         141.0336  139.1527  164.6464 C.ar    1  UNL1        0.0681
      2 C         140.3450  137.8791  164.2542 C.ar    1  UNL1        0.0208
      3 C         140.0302  137.6099  162.8126 C.ar    1  UNL1        0.0384
      4 C         140.4040  138.6142  161.7631 C.ar    1  UNL1        0.1386
      5 C         141.0926  139.8879  162.1553 C.ar    1  UNL1        0.0384
      6 C         141.4074  140.1571  163.5969 C.ar    1  UNL1        0.0208
      7 C         143.6554  138.2622  165.8009 C.3     1  UNL1        0.0723
      8 C         142.6593  138.9766  166.6654 C.ar    1  UNL1        0.1268
      9 N         142.9740  139.2458  168.1070 N.ar    1  UNL1       -0.2296
     10 C         141.9779  139.9602  168.9715 C.ar    1  UNL1        0.1145
     11 C         142.2926  140.2294  170.4132 C.ar    1  UNL1        0.1578
     12 F         143.6036  139.7842  170.9904 F       1  UNL1       -0.2026
     13 C         141.2965  140.9438  171.2776 C.ar    1  UNL1        0.0312
     14 C         139.9856  141.3891  170.7004 C.ar    1  UNL1        0.0026
     15 C         139.6708  141.1199  169.2587 C.ar    1  UNL1        0.0064
     16 C         140.6669  140.4055  168.3943 C.ar    1  UNL1        0.0764
     17 C         140.3522  140.1363  166.9525 C.ar    1  UNL1        0.2670
     18 O         139.0412  140.5816  166.3753 O.2     1  UNL1       -0.2665
     19 N         141.3483  139.4219  166.0881 N.ar    1  UNL1       -0.2626
     20 O         140.0893  138.3450  160.3214 O.3     1  UNL1       -0.4754
     21 C         139.6727  139.4708  159.4218 C.3     1  UNL1        0.2068
     22 C         138.2463  139.9347  159.4123 C.3     1  UNL1        0.0646
     23 C         137.4624  139.9756  160.6905 C.3     1  UNL1        0.0759
     24 N         137.6464  141.1163  161.6469 N.3     1  UNL1       -0.2726
     25 C         137.4337  141.0657  163.1310 C.3     1  UNL1        0.0721
     26 C         137.7312  142.4261  163.6886 C.3     1  UNL1        0.0188
     27 C         138.1277  143.3175  162.5492 C.3     1  UNL1        0.0188
     28 C         138.0753  142.5080  161.2874 C.3     1  UNL1        0.0721
@<TRIPOS>BOND
     1     7     8    1
     2     8     9   ar
     3     9    10   ar
     4    10    11   ar
     5    11    12    1
     6    11    13   ar
     7    13    14   ar
     8    14    15   ar
     9    15    16   ar
    10    16    17   ar
    11    17    18    2
    12    17    19   ar
    13    19     1    1
    14     1     2   ar
    15     2     3   ar
    16     3     4   ar
    17     4    20    1
    18    20    21    1
    19    21    22    1
    20    22    23    1
    21    23    24    1
    22    24    25    1
    23    25    26    1
    24    26    27    1
    25    27    28    1
    26     4     5   ar
    27     5     6   ar
    28    19     8   ar
    29     6     1   ar
    30    16    10   ar
    31    28    24    1
@<TRIPOS>MOLECULE
*****
 28 31 0 0 0
SMALL
GASTEIGER

@<TRIPOS>ATOM
      1 C         139.6050  141.8165  164.2734 C.ar    1  UNL1        0.0681
      2 C         138.2661  142.4790  164.1380 C.ar    1  UNL1        0.0208
      3 C         137.7626  142.8828  162.7840 C.ar    1  UNL1        0.0384
      4 C         138.5979  142.6240  161.5654 C.ar    1  UNL1        0.1386
      5 C         139.9368  141.9614  161.7007 C.ar    1  UNL1        0.0384
      6 C         140.4404  141.5576  163.0547 C.ar    1  UNL1        0.0208
      7 C         138.2281  139.6278  165.7944 C.3     1  UNL1        0.0723
      8 C         139.4201  140.3183  166.3880 C.ar    1  UNL1        0.1268
      9 N         139.9236  139.9145  167.7420 N.ar    1  UNL1       -0.2296
     10 C         141.1156  140.6051  168.3356 C.ar    1  UNL1        0.1145
     11 C         141.6191  140.2013  169.6896 C.ar    1  UNL1        0.1578
     12 F         140.9306  139.1070  170.4501 F       1  UNL1       -0.2026
     13 C         142.8111  140.8919  170.2831 C.ar    1  UNL1        0.0312
     14 C         143.4995  141.9862  169.5226 C.ar    1  UNL1        0.0026
     15 C         142.9961  142.3900  168.1686 C.ar    1  UNL1        0.0064
     16 C         141.8041  141.6994  167.5751 C.ar    1  UNL1        0.0764
     17 C         141.3005  142.1032  166.2210 C.ar    1  UNL1        0.2670
     18 O         141.9890  143.1976  165.4605 O.2     1  UNL1       -0.2665
     19 N         140.1086  141.4127  165.6275 N.ar    1  UNL1       -0.2626
     20 O         138.0944  143.0278  160.2113 O.3     1  UNL1       -0.4754
     21 C         138.5316  142.2710  158.9922 C.3     1  UNL1        0.2068
     22 C         137.9761  140.9049  158.7183 C.3     1  UNL1        0.0646
     23 C         138.8371  139.6922  158.9135 C.3     1  UNL1        0.0759
     24 N         138.9183  139.0392  160.2614 N.3     1  UNL1       -0.2726
     25 C         140.1250  138.3638  160.8427 C.3     1  UNL1        0.0721
     26 C         139.7597  137.8541  162.2053 C.3     1  UNL1        0.0188
     27 C         138.3271  138.2145  162.4663 C.3     1  UNL1        0.0188
     28 C         137.8072  138.9469  161.2649 C.3     1  UNL1        0.0721
@<TRIPOS>BOND
     1     7     8    1
     2     8     9   ar
     3     9    10   ar
     4    10    11   ar
     5    11    12    1
     6    11    13   ar
     7    13    14   ar
     8    14    15   ar
     9    15    16   ar
    10    16    17   ar
    11    17    18    2
    12    17    19   ar
    13    19     1    1
    14     1     2   ar
    15     2     3   ar
    16     3     4   ar
    17     4    20    1
    18    20    21    1
    19    21    22    1
    20    22    23    1
    21    23    24    1
    22    24    25    1
    23    25    26    1
    24    26    27    1
    25    27    28    1
    26     4     5   ar
    27     5     6   ar
    28    19     8   ar
    29     6     1   ar
    30    16    10   ar
    31    28    24    1
@<TRIPOS>MOLECULE
*****
 28 31 0 0 0
SMALL
GASTEIGER

@<TRIPOS>ATOM
      1 C         138.9979  140.0420  164.8259 C.ar    1  UNL1        0.0681
      2 C         138.1624  141.1172  164.1968 C.ar    1  UNL1        0.0208
      3 C         137.5900  140.9160  162.8250 C.ar    1  UNL1        0.0384
      4 C         137.8531  139.6397  162.0823 C.ar    1  UNL1        0.1386
      5 C         138.6886  138.5644  162.7115 C.ar    1  UNL1        0.0384
      6 C         139.2610  138.7656  164.0833 C.ar    1  UNL1        0.0208
      7 C         137.6796  138.7713  167.2024 C.3     1  UNL1        0.0723
      8 C         138.9111  139.6078  167.3860 C.ar    1  UNL1        0.1268
      9 N         139.4834  139.8090  168.7579 N.ar    1  UNL1       -0.2296
     10 C         140.7150  140.6455  168.9415 C.ar    1  UNL1        0.1145
     11 C         141.2873  140.8467  170.3133 C.ar    1  UNL1        0.1578
     12 F         140.6281  140.2114  171.5016 F       1  UNL1       -0.2026
     13 C         142.5187  141.6832  170.4969 C.ar    1  UNL1        0.0312
     14 C         143.1779  142.3185  169.3087 C.ar    1  UNL1        0.0026
     15 C         142.6056  142.1173  167.9369 C.ar    1  UNL1        0.0064
     16 C         141.3741  141.2808  167.7533 C.ar    1  UNL1        0.0764
     17 C         140.8017  141.0796  166.3814 C.ar    1  UNL1        0.2670
     18 O         141.4609  141.7150  165.1932 O.2     1  UNL1       -0.2665
     19 N         139.5703  140.2432  166.1978 N.ar    1  UNL1       -0.2626
     20 O         137.2808  139.4384  160.7104 O.3     1  UNL1       -0.4754
     21 C         138.0085  139.9656  159.5094 C.3     1  UNL1        0.2068
     22 C         139.3690  139.4362  159.1647 C.3     1  UNL1        0.0646
     23 C         140.5963  140.1638  159.6274 C.3     1  UNL1        0.0759
     24 N         141.4323  139.5953  160.7355 N.3     1  UNL1       -0.2726
     25 C         141.9313  140.3432  161.9363 C.3     1  UNL1        0.0721
     26 C         142.7235  139.3892  162.7804 C.3     1  UNL1        0.0188
     27 C         142.7140  138.0517  162.1013 C.3     1  UNL1        0.0188
     28 C         141.9160  138.1791  160.8375 C.3     1  UNL1        0.0721
@<TRIPOS>BOND
     1     7     8    1
     2     8     9   ar
     3     9    10   ar
     4    10    11   ar
     5    11    12    1
     6    11    13   ar
     7    13    14   ar
     8    14    15   ar
     9    15    16   ar
    10    16    17   ar
    11    17    18    2
    12    17    19   ar
    13    19     1    1
    14     1     2   ar
    15     2     3   ar
    16     3     4   ar
    17     4    20    1
    18    20    21    1
    19    21    22    1
    20    22    23    1
    21    23    24    1
    22    24    25    1
    23    25    26    1
    24    26    27    1
    25    27    28    1
    26     4     5   ar
    27     5     6   ar
    28    19     8   ar
    29     6     1   ar
    30    16    10   ar
    31    28    24    1
@<TRIPOS>MOLECULE
*****
 28 31 0 0 0
SMALL
GASTEIGER

@<TRIPOS>ATOM
      1 C         140.5082  139.3131  164.1135 C.ar    1  UNL1        0.0681
      2 C         139.9507  140.1112  162.9724 C.ar    1  UNL1        0.0208
      3 C         140.2769  139.7284  161.5593 C.ar    1  UNL1        0.0384
      4 C         141.1607  138.5473  161.2873 C.ar    1  UNL1        0.1386
      5 C         141.7182  137.7492  162.4284 C.ar    1  UNL1        0.0384
      6 C         141.3920  138.1321  163.8415 C.ar    1  UNL1        0.0208
      7 C         138.4186  137.7911  165.6356 C.3     1  UNL1        0.0723
      8 C         139.1372  138.9350  166.2877 C.ar    1  UNL1        0.1268
      9 N         138.8109  139.3179  167.7008 N.ar    1  UNL1       -0.2296
     10 C         139.5294  140.4618  168.3529 C.ar    1  UNL1        0.1145
     11 C         139.2031  140.8447  169.7660 C.ar    1  UNL1        0.1578
     12 F         138.1583  140.0837  170.5271 F       1  UNL1       -0.2026
     13 C         139.9216  141.9886  170.4181 C.ar    1  UNL1        0.0312
     14 C         140.9664  142.7496  169.6570 C.ar    1  UNL1        0.0026
     15 C         141.2927  142.3668  168.2439 C.ar    1  UNL1        0.0064
     16 C         140.5742  141.2229  167.5919 C.ar    1  UNL1        0.0764
     17 C         140.9005  140.8399  166.1787 C.ar    1  UNL1        0.2670
     18 O         141.9453  141.6009  165.4176 O.2     1  UNL1       -0.2665
     19 N         140.1820  139.6960  165.5267 N.ar    1  UNL1       -0.2626
     20 O         141.4870  138.1644  159.8741 O.3     1  UNL1       -0.4754
     21 C         142.5641  138.8952  159.1287 C.3     1  UNL1        0.2068
     22 C         143.8047  139.3380  159.8463 C.3     1  UNL1        0.0646
     23 C         143.8618  140.6983  160.4759 C.3     1  UNL1        0.0759
     24 N         144.4731  140.8707  161.8347 N.3     1  UNL1       -0.2726
     25 C         144.5004  139.8421  162.9263 C.3     1  UNL1        0.0721
     26 C         145.2087  140.4376  164.1068 C.3     1  UNL1        0.0188
     27 C         145.6191  141.8343  163.7450 C.3     1  UNL1        0.0188
     28 C         145.1645  142.1019  162.3407 C.3     1  UNL1        0.0721
@<TRIPOS>BOND
     1     7     8    1
     2     8     9   ar
     3     9    10   ar
     4    10    11   ar
     5    11    12    1
     6    11    13   ar
     7    13    14   ar
     8    14    15   ar
     9    15    16   ar
    10    16    17   ar
    11    17    18    2
    12    17    19   ar
    13    19     1    1
    14     1     2   ar
    15     2     3   ar
    16     3     4   ar
    17     4    20    1
    18    20    21    1
    19    21    22    1
    20    22    23    1
    21    23    24    1
    22    24    25    1
    23    25    26    1
    24    26    27    1
    25    27    28    1
    26     4     5   ar
    27     5     6   ar
    28    19     8   ar
    29     6     1   ar
    30    16    10   ar
    31    28    24    1
@<TRIPOS>MOLECULE
*****
 28 31 0 0 0
SMALL
GASTEIGER

@<TRIPOS>ATOM
      1 C         142.8441  139.3423  164.4711 C.ar    1  UNL1        0.0681
      2 C         143.9446  139.9780  163.6744 C.ar    1  UNL1        0.0208
      3 C         144.2130  139.5234  162.2704 C.ar    1  UNL1        0.0384
      4 C         143.3809  138.4331  161.6632 C.ar    1  UNL1        0.1386
      5 C         142.2804  137.7974  162.4599 C.ar    1  UNL1        0.0384
      6 C         142.0120  138.2520  163.8639 C.ar    1  UNL1        0.0208
      7 C         143.9566  137.7944  166.7876 C.3     1  UNL1        0.0723
      8 C         143.1320  139.0230  167.0334 C.ar    1  UNL1        0.1268
      9 N         142.8636  139.4777  168.4374 N.ar    1  UNL1       -0.2296
     10 C         142.0389  140.7063  168.6832 C.ar    1  UNL1        0.1145
     11 C         141.7706  141.1610  170.0872 C.ar    1  UNL1        0.1578
     12 F         142.3268  140.3870  171.2455 F       1  UNL1       -0.2026
     13 C         140.9459  142.3896  170.3330 C.ar    1  UNL1        0.0312
     14 C         140.3896  143.1636  169.1748 C.ar    1  UNL1        0.0026
     15 C         140.6580  142.7089  167.7708 C.ar    1  UNL1        0.0064
     16 C         141.4826  141.4803  167.5250 C.ar    1  UNL1        0.0764
     17 C         141.7510  141.0256  166.1209 C.ar    1  UNL1        0.2670
     18 O         141.1948  141.7996  164.9627 O.2     1  UNL1       -0.2665
     19 N         142.5757  139.7970  165.8752 N.ar    1  UNL1       -0.2626
     20 O         143.6493  137.9784  160.2591 O.3     1  UNL1       -0.4754
     21 C         142.7946  138.4785  159.1325 C.3     1  UNL1        0.2068
     22 C         141.9402  139.6965  159.3229 C.3     1  UNL1        0.0646
     23 C         140.4455  139.5705  159.3308 C.3     1  UNL1        0.0759
     24 N         139.7144  139.3966  160.6290 N.3     1  UNL1       -0.2726
     25 C         138.9094  138.1973  161.0338 C.3     1  UNL1        0.0721
     26 C         138.3574  138.4509  162.4053 C.3     1  UNL1        0.0188
     27 C         138.8212  139.8070  162.8482 C.3     1  UNL1        0.0188
     28 C         139.6599  140.3915  161.7503 C.3     1  UNL1        0.0721
@<TRIPOS>BOND
     1     7     8    1
     2     8     9   ar
     3     9    10   ar
     4    10    11   ar
     5    11    12    1
     6    11    13   ar
     7    13    14   ar
     8    14    15   ar
     9    15    16   ar
    10    16    17   ar
    11    17    18    2
    12    17    19   ar
    13    19     1    1
    14     1     2   ar
    15     2     3   ar
    16     3     4   ar
    17     4    20    1
    18    20    21    1
    19    21    22    1
    20    22    23    1
    21    23    24    1
    22    24    25    1
    23    25    26    1
    24    26    27    1
    25    27    28    1
    26     4     5   ar
    27     5     6   ar
    28    19     8   ar
    29     6     1   ar
    30    16    10   ar
    31    28    24    1
@<TRIPOS>MOLECULE
*****
 28 31 0 0 0
SMALL
GASTEIGER

@<TRIPOS>ATOM
      1 C         142.9832  140.9646  164.3100 C.ar    1  UNL1        0.0681
      2 C         141.9487  141.4771  163.3524 C.ar    1  UNL1        0.0208
      3 C         142.0610  141.1655  161.8894 C.ar    1  UNL1        0.0384
      4 C         143.2079  140.3414  161.3841 C.ar    1  UNL1        0.1386
      5 C         144.2424  139.8289  162.3417 C.ar    1  UNL1        0.0384
      6 C         144.1301  140.1405  163.8046 C.ar    1  UNL1        0.0208
      7 C         144.4238  143.3345  165.4537 C.3     1  UNL1        0.0723
      8 C         143.5912  142.4612  166.3449 C.ar    1  UNL1        0.1268
      9 N         143.4788  142.7728  167.8078 N.ar    1  UNL1       -0.2296
     10 C         142.6462  141.8995  168.6989 C.ar    1  UNL1        0.1145
     11 C         142.5338  142.2112  170.1618 C.ar    1  UNL1        0.1578
     12 F         143.2541  143.3962  170.7337 F       1  UNL1       -0.2026
     13 C         141.7012  141.3379  171.0529 C.ar    1  UNL1        0.0312
     14 C         140.9809  140.1529  170.4810 C.ar    1  UNL1        0.0026
     15 C         141.0932  139.8413  169.0181 C.ar    1  UNL1        0.0064
     16 C         141.9259  140.7146  168.1271 C.ar    1  UNL1        0.0764
     17 C         142.0382  140.4029  166.6640 C.ar    1  UNL1        0.2670
     18 O         141.3179  139.2180  166.0922 O.2     1  UNL1       -0.2665
     19 N         142.8709  141.2762  165.7730 N.ar    1  UNL1       -0.2626
     20 O         143.3202  140.0297  159.9211 O.3     1  UNL1       -0.4754
     21 C         142.0816  139.8923  159.0863 C.3     1  UNL1        0.2068
     22 C         141.3010  138.6117  159.1077 C.3     1  UNL1        0.0646
     23 C         139.9451  138.5704  159.7481 C.3     1  UNL1        0.0759
     24 N         139.8072  138.1702  161.1870 N.3     1  UNL1       -0.2726
     25 C         138.5372  138.1741  161.9855 C.3     1  UNL1        0.0721
     26 C         138.8601  137.7021  163.3722 C.3     1  UNL1        0.0188
     27 C         140.3295  137.4063  163.4309 C.3     1  UNL1        0.0188
     28 C         140.9148  137.6956  162.0803 C.3     1  UNL1        0.0721
@<TRIPOS>BOND
     1     7     8    1
     2     8     9   ar
     3     9    10   ar
     4    10    11   ar
     5    11    12    1
     6    11    13   ar
     7    13    14   ar
     8    14    15   ar
     9    15    16   ar
    10    16    17   ar
    11    17    18    2
    12    17    19   ar
    13    19     1    1
    14     1     2   ar
    15     2     3   ar
    16     3     4   ar
    17     4    20    1
    18    20    21    1
    19    21    22    1
    20    22    23    1
    21    23    24    1
    22    24    25    1
    23    25    26    1
    24    26    27    1
    25    27    28    1
    26     4     5   ar
    27     5     6   ar
    28    19     8   ar
    29     6     1   ar
    30    16    10   ar
    31    28    24    1
@<TRIPOS>MOLECULE
*****
 28 31 0 0 0
SMALL
GASTEIGER

@<TRIPOS>ATOM
      1 C         141.8013  143.5532  162.5983 C.ar    1  UNL1        0.0681
      2 C         142.9198  144.1094  163.4287 C.ar    1  UNL1        0.0208
      3 C         143.2707  143.4697  164.7393 C.ar    1  UNL1        0.0384
      4 C         142.5031  142.2739  165.2195 C.ar    1  UNL1        0.1386
      5 C         141.3845  141.7177  164.3891 C.ar    1  UNL1        0.0384
      6 C         141.0336  142.3574  163.0785 C.ar    1  UNL1        0.0208
      7 C         139.5947  145.5812  162.4623 C.3     1  UNL1        0.0723
      8 C         140.3471  145.2070  161.2197 C.ar    1  UNL1        0.1268
      9 N         139.9962  145.8467  159.9092 N.ar    1  UNL1       -0.2296
     10 C         140.7485  145.4725  158.6665 C.ar    1  UNL1        0.1145
     11 C         140.3976  146.1122  157.3560 C.ar    1  UNL1        0.1578
     12 F         139.2944  147.1262  157.2880 F       1  UNL1       -0.2026
     13 C         141.1500  145.7379  156.1135 C.ar    1  UNL1        0.0312
     14 C         142.2532  144.7240  156.1815 C.ar    1  UNL1        0.0026
     15 C         142.6041  144.0842  157.4921 C.ar    1  UNL1        0.0064
     16 C         141.8518  144.4585  158.7346 C.ar    1  UNL1        0.0764
     17 C         142.2027  143.8187  160.0452 C.ar    1  UNL1        0.2670
     18 O         143.3060  142.8047  160.1132 O.2     1  UNL1       -0.2665
     19 N         141.4503  144.1930  161.2877 N.ar    1  UNL1       -0.2626
     20 O         142.8540  141.6341  166.5301 O.3     1  UNL1       -0.4754
     21 C         142.1093  140.4175  166.9940 C.3     1  UNL1        0.2068
     22 C         142.8560  139.1545  167.3056 C.3     1  UNL1        0.0646
     23 C         143.4915  138.3664  166.1988 C.3     1  UNL1        0.0759
     24 N         142.7705  138.1874  164.8958 N.3     1  UNL1       -0.2726
     25 C         143.2502  138.6499  163.5518 C.3     1  UNL1        0.0721
     26 C         142.2193  138.2629  162.5333 C.3     1  UNL1        0.0188
     27 C         141.1023  137.5612  163.2477 C.3     1  UNL1        0.0188
     28 C         141.4430  137.5146  164.7078 C.3     1  UNL1        0.0721
@<TRIPOS>BOND
     1     7     8    1
     2     8     9   ar
     3     9    10   ar
     4    10    11   ar
     5    11    12    1
     6    11    13   ar
     7    13    14   ar
     8    14    15   ar
     9    15    16   ar
    10    16    17   ar
    11    17    18    2
    12    17    19   ar
    13    19     1    1
    14     1     2   ar
    15     2     3   ar
    16     3     4   ar
    17     4    20    1
    18    20    21    1
    19    21    22    1
    20    22    23    1
    21    23    24    1
    22    24    25    1
    23    25    26    1
    24    26    27    1
    25    27    28    1
    26     4     5   ar
    27     5     6   ar
    28    19     8   ar
    29     6     1   ar
    30    16    10   ar
    31    28    24    1
@<TRIPOS>MOLECULE
*****
 28 31 0 0 0
SMALL
GASTEIGER

@<TRIPOS>ATOM
      1 C         142.1395  139.9200  163.7688 C.ar    1  UNL1        0.0681
      2 C         141.4963  140.5651  162.5771 C.ar    1  UNL1        0.0208
      3 C         141.7118  139.9934  161.2072 C.ar    1  UNL1        0.0384
      4 C         142.5706  138.7766  161.0290 C.ar    1  UNL1        0.1386
      5 C         143.2138  138.1315  162.2207 C.ar    1  UNL1        0.0384
      6 C         142.9982  138.7032  163.5906 C.ar    1  UNL1        0.0208
      7 C         143.9203  142.1143  164.7756 C.3     1  UNL1        0.0723
      8 C         142.8143  141.5889  165.6422 C.ar    1  UNL1        0.1268
      9 N         142.5987  142.1607  167.0120 N.ar    1  UNL1       -0.2296
     10 C         141.4927  141.6354  167.8785 C.ar    1  UNL1        0.1145
     11 C         141.2771  142.2072  169.2484 C.ar    1  UNL1        0.1578
     12 F         142.1675  143.3043  169.7518 F       1  UNL1       -0.2026
     13 C         140.1711  141.6818  170.1148 C.ar    1  UNL1        0.0312
     14 C         139.2807  140.5847  169.6114 C.ar    1  UNL1        0.0026
     15 C         139.4963  140.0129  168.2416 C.ar    1  UNL1        0.0064
     16 C         140.6023  140.5382  167.3751 C.ar    1  UNL1        0.0764
     17 C         140.8179  139.9664  166.0052 C.ar    1  UNL1        0.2670
     18 O         139.9274  138.8693  165.5018 O.2     1  UNL1       -0.2665
     19 N         141.9238  140.4918  165.1387 N.ar    1  UNL1       -0.2626
     20 O         142.7862  138.2048  159.6591 O.3     1  UNL1       -0.4754
     21 C         141.6857  138.2608  158.6413 C.3     1  UNL1        0.2068
     22 C         141.8461  137.5614  157.3241 C.3     1  UNL1        0.0646
     23 C         143.0070  136.6379  157.1017 C.3     1  UNL1        0.0759
     24 N         142.7647  135.1994  156.7526 N.3     1  UNL1       -0.2726
     25 C         141.8377  134.6948  155.6867 C.3     1  UNL1        0.0721
     26 C         141.9069  133.1964  155.6833 C.3     1  UNL1        0.0188
     27 C         142.8769  132.7748  156.7472 C.3     1  UNL1        0.0188
     28 C         143.4070  134.0128  157.4080 C.3     1  UNL1        0.0721
@<TRIPOS>BOND
     1     7     8    1
     2     8     9   ar
     3     9    10   ar
     4    10    11   ar
     5    11    12    1
     6    11    13   ar
     7    13    14   ar
     8    14    15   ar
     9    15    16   ar
    10    16    17   ar
    11    17    18    2
    12    17    19   ar
    13    19     1    1
    14     1     2   ar
    15     2     3   ar
    16     3     4   ar
    17     4    20    1
    18    20    21    1
    19    21    22    1
    20    22    23    1
    21    23    24    1
    22    24    25    1
    23    25    26    1
    24    26    27    1
    25    27    28    1
    26     4     5   ar
    27     5     6   ar
    28    19     8   ar
    29     6     1   ar
    30    16    10   ar
    31    28    24    1
