@<TRIPOS>MOLECULE
*****
 19 20 0 0 0
SMALL
GASTEIGER

@<TRIPOS>ATOM
      1 C         140.4049  140.4438  167.2436 C.ar    1  UNL1        0.0511
      2 C         141.7940  140.0581  166.8294 C.ar    1  UNL1        0.0163
      3 C         142.7437  139.4804  167.8364 C.ar    1  UNL1        0.0253
      4 C         142.3044  139.2882  169.2577 C.ar    1  UNL1        0.1365
      5 C         140.9153  139.6739  169.6719 C.ar    1  UNL1        0.1541
      6 O         140.4759  139.4818  171.0932 O.3     1  UNL1       -0.5039
      7 C         139.9655  140.2517  168.6649 C.ar    1  UNL1        0.0527
      8 H         141.0691  139.1208  171.7223 H       1  UNL1        0.2923
      9 C         139.6304  142.4346  165.7648 C.3     1  UNL1        0.1122
     10 N         139.4551  141.0216  166.2366 N.pl3   1  UNL1       -0.3040
     11 C         138.3301  140.1863  165.7013 C.3     1  UNL1        0.1122
     12 N         143.2542  138.7105  170.2647 N.2     1  UNL1       -0.1435
     13 N         143.4892  137.2297  170.3106 N.2     1  UNL1       -0.1284
     14 C         144.4390  136.6520  171.3177 C.ar    1  UNL1        0.1838
     15 C         144.5423  135.1647  171.4841 C.ar    1  UNL1        0.0406
     16 C         145.4921  134.5870  172.4911 C.ar    1  UNL1        0.0048
     17 C         146.3385  135.4964  173.3318 C.ar    1  UNL1        0.0208
     18 C         146.2351  136.9835  173.1654 C.ar    1  UNL1        0.1006
     19 N         145.2853  137.5613  172.1583 N.ar    1  UNL1       -0.2236
@<TRIPOS>BOND
     1     9    10    1
     2    10    11    1
     3    10     1    1
     4     1     2   ar
     5     2     3   ar
     6     3     4   ar
     7     4    12    1
     8    12    13    2
     9    13    14    1
    10    14    15   ar
    11    15    16   ar
    12    16    17   ar
    13    17    18   ar
    14    18    19   ar
    15     4     5   ar
    16     5     6    1
    17     5     7   ar
    18     7     1   ar
    19    19    14   ar
    20     6     8    1
@<TRIPOS>MOLECULE
*****
 19 20 0 0 0
SMALL
GASTEIGER

@<TRIPOS>ATOM
      1 C         140.4914  141.8419  167.4279 C.ar    1  UNL1        0.0511
      2 C         139.7944  140.5457  167.1378 C.ar    1  UNL1        0.0163
      3 C         139.1026  139.8027  168.2420 C.ar    1  UNL1        0.0253
      4 C         139.1077  140.3558  169.6363 C.ar    1  UNL1        0.1365
      5 C         139.8047  141.6519  169.9263 C.ar    1  UNL1        0.1541
      6 O         139.8099  142.2051  171.3207 O.3     1  UNL1       -0.5039
      7 C         140.4966  142.3949  168.8221 C.ar    1  UNL1        0.0527
      8 H         139.3778  141.7409  172.0104 H       1  UNL1        0.2923
      9 C         142.6631  142.4338  166.1304 C.3     1  UNL1        0.1122
     10 N         141.1833  142.5849  166.3237 N.pl3   1  UNL1       -0.3040
     11 C         140.3954  143.4790  165.4128 C.3     1  UNL1        0.1122
     12 N         138.4159  139.6128  170.7404 N.2     1  UNL1       -0.1435
     13 N         137.1813  138.8128  170.4474 N.2     1  UNL1       -0.1284
     14 C         136.4894  138.0698  171.5516 C.ar    1  UNL1        0.1838
     15 C         135.2534  138.6414  172.1806 C.ar    1  UNL1        0.0406
     16 C         134.5615  137.8983  173.2848 C.ar    1  UNL1        0.0048
     17 C         135.1057  136.5837  173.7600 C.ar    1  UNL1        0.0208
     18 C         136.3417  136.0123  173.1311 C.ar    1  UNL1        0.1006
     19 N         137.0336  136.7553  172.0269 N.ar    1  UNL1       -0.2236
@<TRIPOS>BOND
     1     9    10    1
     2    10    11    1
     3    10     1    1
     4     1     2   ar
     5     2     3   ar
     6     3     4   ar
     7     4    12    1
     8    12    13    2
     9    13    14    1
    10    14    15   ar
    11    15    16   ar
    12    16    17   ar
    13    17    18   ar
    14    18    19   ar
    15     4     5   ar
    16     5     6    1
    17     5     7   ar
    18     7     1   ar
    19    19    14   ar
    20     6     8    1
@<TRIPOS>MOLECULE
*****
 19 20 0 0 0
SMALL
GASTEIGER

@<TRIPOS>ATOM
      1 C         140.6866  140.8636  167.3897 C.ar    1  UNL1        0.0511
      2 C         140.4711  141.1118  168.8532 C.ar    1  UNL1        0.0163
      3 C         141.3332  140.4188  169.8664 C.ar    1  UNL1        0.0253
      4 C         142.4108  139.4777  169.4161 C.ar    1  UNL1        0.1365
      5 C         142.6264  139.2295  167.9526 C.ar    1  UNL1        0.1541
      6 O         143.7041  138.2882  167.5022 O.3     1  UNL1       -0.5039
      7 C         141.7643  139.9224  166.9394 C.ar    1  UNL1        0.0527
      8 H         144.2426  137.8553  168.1351 H       1  UNL1        0.2923
      9 C         139.9579  143.0354  166.1641 C.3     1  UNL1        0.1122
     10 N         139.8245  141.5566  166.3765 N.pl3   1  UNL1       -0.3040
     11 C         138.8290  140.7707  165.5757 C.3     1  UNL1        0.1122
     12 N         143.2729  138.7847  170.4293 N.2     1  UNL1       -0.1435
     13 N         143.6643  137.3510  170.2261 N.2     1  UNL1       -0.1284
     14 C         144.5264  136.6580  171.2393 C.ar    1  UNL1        0.1838
     15 C         144.3551  135.1892  171.4908 C.ar    1  UNL1        0.0406
     16 C         145.2172  134.4962  172.5040 C.ar    1  UNL1        0.0048
     17 C         146.2506  135.2721  173.2657 C.ar    1  UNL1        0.0208
     18 C         146.4219  136.7409  173.0142 C.ar    1  UNL1        0.1006
     19 N         145.5598  137.4338  172.0010 N.ar    1  UNL1       -0.2236
@<TRIPOS>BOND
     1     9    10    1
     2    10    11    1
     3    10     1    1
     4     1     2   ar
     5     2     3   ar
     6     3     4   ar
     7     4    12    1
     8    12    13    2
     9    13    14    1
    10    14    15   ar
    11    15    16   ar
    12    16    17   ar
    13    17    18   ar
    14    18    19   ar
    15     4     5   ar
    16     5     6    1
    17     5     7   ar
    18     7     1   ar
    19    19    14   ar
    20     6     8    1
@<TRIPOS>MOLECULE
*****
 19 20 0 0 0
SMALL
GASTEIGER

@<TRIPOS>ATOM
      1 C         143.6323  142.8557  160.5216 C.ar    1  UNL1        0.0511
      2 C         142.4046  142.9632  161.3766 C.ar    1  UNL1        0.0163
      3 C         142.4896  142.6894  162.8489 C.ar    1  UNL1        0.0253
      4 C         143.8024  142.3082  163.4663 C.ar    1  UNL1        0.1365
      5 C         145.0302  142.2007  162.6113 C.ar    1  UNL1        0.1541
      6 O         146.3430  141.8194  163.2287 O.3     1  UNL1       -0.5039
      7 C         144.9451  142.4744  161.1390 C.ar    1  UNL1        0.0527
      8 H         146.3962  141.6484  164.1484 H       1  UNL1        0.2923
      9 C         144.5834  142.5684  158.1210 C.3     1  UNL1        0.1122
     10 N         143.5473  143.1294  159.0492 N.pl3   1  UNL1       -0.3040
     11 C         142.4262  143.9642  158.5051 C.3     1  UNL1        0.1122
     12 N         143.8874  142.0344  164.9387 N.2     1  UNL1       -0.1435
     13 N         142.6978  141.4862  165.6695 N.2     1  UNL1       -0.1284
     14 C         142.7828  141.2125  167.1419 C.ar    1  UNL1        0.1838
     15 C         143.2321  142.2926  168.0808 C.ar    1  UNL1        0.0406
     16 C         143.3172  142.0188  169.5532 C.ar    1  UNL1        0.0048
     17 C         142.9529  140.6650  170.0866 C.ar    1  UNL1        0.0208
     18 C         142.5036  139.5850  169.1476 C.ar    1  UNL1        0.1006
     19 N         142.4186  139.8587  167.6753 N.ar    1  UNL1       -0.2236
@<TRIPOS>BOND
     1     9    10    1
     2    10    11    1
     3    10     1    1
     4     1     2   ar
     5     2     3   ar
     6     3     4   ar
     7     4    12    1
     8    12    13    2
     9    13    14    1
    10    14    15   ar
    11    15    16   ar
    12    16    17   ar
    13    17    18   ar
    14    18    19   ar
    15     4     5   ar
    16     5     6    1
    17     5     7   ar
    18     7     1   ar
    19    19    14   ar
    20     6     8    1
@<TRIPOS>MOLECULE
*****
 19 20 0 0 0
SMALL
GASTEIGER

@<TRIPOS>ATOM
      1 C         134.3822  140.5416  154.5108 C.ar    1  UNL1        0.0511
      2 C         133.2199  141.4895  154.5319 C.ar    1  UNL1        0.0163
      3 C         132.1219  141.3075  155.5374 C.ar    1  UNL1        0.0253
      4 C         132.1861  140.1776  156.5219 C.ar    1  UNL1        0.1365
      5 C         133.3484  139.2297  156.5008 C.ar    1  UNL1        0.1541
      6 O         133.4127  138.0998  157.4852 O.3     1  UNL1       -0.5039
      7 C         134.4465  139.4117  155.4952 C.ar    1  UNL1        0.0527
      8 H         132.7268  137.9861  158.1134 H       1  UNL1        0.2923
      9 C         136.1360  139.5253  152.8856 C.3     1  UNL1        0.1122
     10 N         135.4803  140.7236  153.5052 N.pl3   1  UNL1       -0.3040
     11 C         135.9226  142.1039  153.1193 C.3     1  UNL1        0.1122
     12 N         131.0881  139.9957  157.5274 N.2     1  UNL1       -0.1435
     13 N         130.4819  138.6400  157.7389 N.2     1  UNL1       -0.1284
     14 C         129.3838  138.4581  158.7445 C.ar    1  UNL1        0.1838
     15 C         128.7560  137.1089  158.9335 C.ar    1  UNL1        0.0406
     16 C         127.6580  136.9269  159.9391 C.ar    1  UNL1        0.0048
     17 C         127.1877  138.0941  160.7556 C.ar    1  UNL1        0.0208
     18 C         127.8154  139.4432  160.5664 C.ar    1  UNL1        0.1006
     19 N         128.9135  139.6252  159.5609 N.ar    1  UNL1       -0.2236
@<TRIPOS>BOND
     1     9    10    1
     2    10    11    1
     3    10     1    1
     4     1     2   ar
     5     2     3   ar
     6     3     4   ar
     7     4    12    1
     8    12    13    2
     9    13    14    1
    10    14    15   ar
    11    15    16   ar
    12    16    17   ar
    13    17    18   ar
    14    18    19   ar
    15     4     5   ar
    16     5     6    1
    17     5     7   ar
    18     7     1   ar
    19    19    14   ar
    20     6     8    1
@<TRIPOS>MOLECULE
*****
 19 20 0 0 0
SMALL
GASTEIGER

@<TRIPOS>ATOM
      1 C         139.0331  138.9060  164.9474 C.ar    1  UNL1        0.0511
      2 C         138.2659  139.7049  163.9360 C.ar    1  UNL1        0.0163
      3 C         138.5383  139.5217  162.4723 C.ar    1  UNL1        0.0253
      4 C         139.5778  138.5395  162.0201 C.ar    1  UNL1        0.1365
      5 C         140.3451  137.7406  163.0315 C.ar    1  UNL1        0.1541
      6 O         141.3847  136.7583  162.5794 O.3     1  UNL1       -0.5039
      7 C         140.0727  137.9238  164.4952 C.ar    1  UNL1        0.0527
      8 H         141.5549  136.6439  161.6651 H       1  UNL1        0.2923
      9 C         139.6741  139.9397  167.2432 C.3     1  UNL1        0.1122
     10 N         138.7608  139.0892  166.4110 N.pl3   1  UNL1       -0.3040
     11 C         137.5750  138.4220  167.0426 C.3     1  UNL1        0.1122
     12 N         139.8502  138.3562  160.5565 N.2     1  UNL1       -0.1435
     13 N         141.2567  138.4298  160.0404 N.2     1  UNL1       -0.1284
     14 C         141.5290  138.2465  158.5767 C.ar    1  UNL1        0.1838
     15 C         140.3950  137.9879  157.6295 C.ar    1  UNL1        0.0406
     16 C         140.6674  137.8047  156.1658 C.ar    1  UNL1        0.0048
     17 C         142.0737  137.8800  155.6494 C.ar    1  UNL1        0.0208
     18 C         143.2076  138.1386  156.5967 C.ar    1  UNL1        0.1006
     19 N         142.9353  138.3219  158.0603 N.ar    1  UNL1       -0.2236
@<TRIPOS>BOND
     1     9    10    1
     2    10    11    1
     3    10     1    1
     4     1     2   ar
     5     2     3   ar
     6     3     4   ar
     7     4    12    1
     8    12    13    2
     9    13    14    1
    10    14    15   ar
    11    15    16   ar
    12    16    17   ar
    13    17    18   ar
    14    18    19   ar
    15     4     5   ar
    16     5     6    1
    17     5     7   ar
    18     7     1   ar
    19    19    14   ar
    20     6     8    1
@<TRIPOS>MOLECULE
*****
 19 20 0 0 0
SMALL
GASTEIGER

@<TRIPOS>ATOM
      1 C         140.7066  146.0877  156.3505 C.ar    1  UNL1        0.0511
      2 C         141.9664  145.2853  156.2139 C.ar    1  UNL1        0.0163
      3 C         142.5293  144.5646  157.4029 C.ar    1  UNL1        0.0253
      4 C         141.8323  144.6465  158.7286 C.ar    1  UNL1        0.1365
      5 C         140.5724  145.4490  158.8652 C.ar    1  UNL1        0.1541
      6 O         139.8754  145.5309  160.1909 O.3     1  UNL1       -0.5039
      7 C         140.0096  146.1696  157.6761 C.ar    1  UNL1        0.0527
      8 H         140.2269  145.0807  160.9337 H       1  UNL1        0.2923
      9 C         138.9392  147.6883  155.3187 C.3     1  UNL1        0.1122
     10 N         140.1437  146.8084  155.1614 N.pl3   1  UNL1       -0.3040
     11 C         140.7853  146.6490  153.8150 C.3     1  UNL1        0.1122
     12 N         142.3952  143.9259  159.9177 N.2     1  UNL1       -0.1435
     13 N         142.5122  144.6316  161.2361 N.2     1  UNL1       -0.1284
     14 C         143.0751  143.9110  162.4251 C.ar    1  UNL1        0.1838
     15 C         143.6085  144.6899  163.5909 C.ar    1  UNL1        0.0406
     16 C         144.1713  143.9693  164.7799 C.ar    1  UNL1        0.0048
     17 C         144.2008  142.4697  164.8033 C.ar    1  UNL1        0.0208
     18 C         143.6675  141.6909  163.6376 C.ar    1  UNL1        0.1006
     19 N         143.1046  142.4115  162.4485 N.ar    1  UNL1       -0.2236
@<TRIPOS>BOND
     1     9    10    1
     2    10    11    1
     3    10     1    1
     4     1     2   ar
     5     2     3   ar
     6     3     4   ar
     7     4    12    1
     8    12    13    2
     9    13    14    1
    10    14    15   ar
    11    15    16   ar
    12    16    17   ar
    13    17    18   ar
    14    18    19   ar
    15     4     5   ar
    16     5     6    1
    17     5     7   ar
    18     7     1   ar
    19    19    14   ar
    20     6     8    1
@<TRIPOS>MOLECULE
*****
 19 20 0 0 0
SMALL
GASTEIGER

@<TRIPOS>ATOM
      1 C         138.5128  139.4157  164.5825 C.ar    1  UNL1        0.0511
      2 C         138.6025  138.2426  163.6521 C.ar    1  UNL1        0.0163
      3 C         138.2888  138.4149  162.1954 C.ar    1  UNL1        0.0253
      4 C         137.8854  139.7603  161.6692 C.ar    1  UNL1        0.1365
      5 C         137.7956  140.9334  162.5996 C.ar    1  UNL1        0.1541
      6 O         137.3921  142.2789  162.0733 O.3     1  UNL1       -0.5039
      7 C         138.1093  140.7611  164.0562 C.ar    1  UNL1        0.0527
      8 H         137.1962  142.3866  161.1634 H       1  UNL1        0.2923
      9 C         137.8345  138.5778  166.9464 C.3     1  UNL1        0.1122
     10 N         138.8265  139.2434  166.0392 N.pl3   1  UNL1       -0.3040
     11 C         140.1321  139.7366  166.5887 C.3     1  UNL1        0.1122
     12 N         137.5717  139.9326  160.2125 N.2     1  UNL1       -0.1435
     13 N         138.3605  140.9038  159.3852 N.2     1  UNL1       -0.1284
     14 C         138.0469  141.0761  157.9285 C.ar    1  UNL1        0.1838
     15 C         137.5679  142.4021  157.4162 C.ar    1  UNL1        0.0406
     16 C         137.2542  142.5744  155.9595 C.ar    1  UNL1        0.0048
     17 C         137.4195  141.4207  155.0152 C.ar    1  UNL1        0.0208
     18 C         137.8984  140.0948  155.5275 C.ar    1  UNL1        0.1006
     19 N         138.2121  139.9225  156.9842 N.ar    1  UNL1       -0.2236
@<TRIPOS>BOND
     1     9    10    1
     2    10    11    1
     3    10     1    1
     4     1     2   ar
     5     2     3   ar
     6     3     4   ar
     7     4    12    1
     8    12    13    2
     9    13    14    1
    10    14    15   ar
    11    15    16   ar
    12    16    17   ar
    13    17    18   ar
    14    18    19   ar
    15     4     5   ar
    16     5     6    1
    17     5     7   ar
    18     7     1   ar
    19    19    14   ar
    20     6     8    1
@<TRIPOS>MOLECULE
*****
 19 20 0 0 0
SMALL
GASTEIGER

@<TRIPOS>ATOM
      1 C         141.0188  145.3378  155.6434 C.ar    1  UNL1        0.0511
      2 C         139.8595  144.3887  155.7153 C.ar    1  UNL1        0.0163
      3 C         139.3577  143.9171  157.0479 C.ar    1  UNL1        0.0253
      4 C         140.0152  144.3946  158.3086 C.ar    1  UNL1        0.1365
      5 C         141.1745  145.3437  158.2368 C.ar    1  UNL1        0.1541
      6 O         141.8321  145.8212  159.4976 O.3     1  UNL1       -0.5039
      7 C         141.6763  145.8153  156.9042 C.ar    1  UNL1        0.0527
      8 H         141.5186  145.5267  160.3301 H       1  UNL1        0.2923
      9 C         142.7419  145.1836  153.7051 C.3     1  UNL1        0.1122
     10 N         141.5206  145.8093  154.3108 N.pl3   1  UNL1       -0.3040
     11 C         140.8011  146.9066  153.5840 C.3     1  UNL1        0.1122
     12 N         139.5134  143.9231  159.6412 N.2     1  UNL1       -0.1435
     13 N         139.5363  144.8484  160.8215 N.2     1  UNL1       -0.1284
     14 C         139.0345  144.3769  162.1541 C.ar    1  UNL1        0.1838
     15 C         138.1071  143.2005  162.2329 C.ar    1  UNL1        0.0406
     16 C         137.6053  142.7289  163.5655 C.ar    1  UNL1        0.0048
     17 C         138.0309  143.4338  164.8193 C.ar    1  UNL1        0.0208
     18 C         138.9582  144.6101  164.7406 C.ar    1  UNL1        0.1006
     19 N         139.4600  145.0817  163.4080 N.ar    1  UNL1       -0.2236
@<TRIPOS>BOND
     1     9    10    1
     2    10    11    1
     3    10     1    1
     4     1     2   ar
     5     2     3   ar
     6     3     4   ar
     7     4    12    1
     8    12    13    2
     9    13    14    1
    10    14    15   ar
    11    15    16   ar
    12    16    17   ar
    13    17    18   ar
    14    18    19   ar
    15     4     5   ar
    16     5     6    1
    17     5     7   ar
    18     7     1   ar
    19    19    14   ar
    20     6     8    1
