@<TRIPOS>MOLECULE
*****
 28 31 0 0 0
SMALL
GASTEIGER

@<TRIPOS>ATOM
      1 C         141.2854  139.0241  161.6174 C.ar    1  UNL1        0.0544
      2 C         140.4668  138.5929  160.4368 C.ar    1  UNL1        0.0180
      3 C         141.1407  138.2553  159.1399 C.ar    1  UNL1        0.0382
      4 C         142.6333  138.3488  159.0237 C.ar    1  UNL1        0.1392
      5 C         143.4519  138.7800  160.2044 C.ar    1  UNL1        0.0382
      6 C         142.7780  139.1176  161.5012 C.ar    1  UNL1        0.0180
      7 C         139.9890  140.7129  163.1065 C.3     1  UNL1        0.1203
      8 N         140.6115  139.3617  162.9143 N.am    1  UNL1       -0.2534
      9 C         140.5602  138.3483  164.0189 C.2     1  UNL1        0.2529
     10 O         141.1827  136.9972  163.8266 O.2     1  UNL1       -0.2696
     11 C         139.8862  138.6859  165.3158 C.ar    1  UNL1        0.0570
     12 C         140.6074  139.5052  166.3447 C.ar    1  UNL1        0.0252
     13 C         139.9336  139.8428  167.6416 C.ar    1  UNL1        0.0990
     14 N         138.5385  139.3611  167.9096 N.ar    1  UNL1       -0.2423
     15 C         137.8173  138.5418  166.8807 C.ar    1  UNL1        0.0990
     16 C         138.4912  138.2042  165.5838 C.ar    1  UNL1        0.0252
     17 O         143.3072  138.0112  157.7269 O.3     1  UNL1       -0.4690
     18 C         142.5386  137.3197  156.6401 C.3     1  UNL1        0.2508
     19 C         142.5895  135.8253  156.5198 C.ar    1  UNL1        0.1026
     20 C         141.5990  135.1087  155.6506 C.ar    1  UNL1        0.0184
     21 C         141.6498  133.6144  155.5303 C.ar    1  UNL1        0.0028
     22 C         142.6911  132.8367  156.2793 C.ar    1  UNL1        0.0177
     23 C         142.7419  131.3424  156.1590 C.ar    1  UNL1        0.0015
     24 C         143.7832  130.5647  156.9079 C.ar    1  UNL1        0.0001
     25 C         144.7736  131.2813  157.7771 C.ar    1  UNL1        0.0015
     26 C         144.7228  132.7755  157.8974 C.ar    1  UNL1        0.0191
     27 C         143.6816  133.5532  157.1485 C.ar    1  UNL1        0.0810
     28 N         143.6307  135.0476  157.2687 N.ar    1  UNL1       -0.2460
@<TRIPOS>BOND
     1     7     8    1
     2     8     9   am
     3     9    10    2
     4     9    11    1
     5    11    12   ar
     6    12    13   ar
     7    13    14   ar
     8    14    15   ar
     9    15    16   ar
    10     8     1    1
    11     1     2   ar
    12     2     3   ar
    13     3     4   ar
    14     4    17    1
    15    17    18    1
    16    18    19    1
    17    19    20   ar
    18    20    21   ar
    19    21    22   ar
    20    22    23   ar
    21    23    24   ar
    22    24    25   ar
    23    25    26   ar
    24    26    27   ar
    25    27    28   ar
    26     4     5   ar
    27     5     6   ar
    28    16    11   ar
    29     6     1   ar
    30    28    19   ar
    31    27    22   ar
@<TRIPOS>MOLECULE
*****
 28 31 0 0 0
SMALL
GASTEIGER

@<TRIPOS>ATOM
      1 C         141.1592  138.1209  161.7616 C.ar    1  UNL1        0.0544
      2 C         139.6681  137.9954  161.6568 C.ar    1  UNL1        0.0180
      3 C         138.8512  137.7144  162.8831 C.ar    1  UNL1        0.0382
      4 C         139.5253  137.5589  164.2140 C.ar    1  UNL1        0.1392
      5 C         141.0163  137.6844  164.3188 C.ar    1  UNL1        0.0382
      6 C         141.8333  137.9654  163.0926 C.ar    1  UNL1        0.0180
      7 C         142.9596  137.3835  160.0398 C.3     1  UNL1        0.1203
      8 N         141.9762  138.4019  160.5354 N.am    1  UNL1       -0.2534
      9 C         141.8096  139.7013  159.8049 C.2     1  UNL1        0.2529
     10 O         140.8262  140.7197  160.3005 O.2     1  UNL1       -0.2696
     11 C         142.6266  139.9824  158.5786 C.ar    1  UNL1        0.0570
     12 C         142.1337  139.5425  157.2319 C.ar    1  UNL1        0.0252
     13 C         142.9506  139.8235  156.0057 C.ar    1  UNL1        0.0990
     14 N         144.2605  140.5445  156.1262 N.ar    1  UNL1       -0.2423
     15 C         144.7534  140.9844  157.4728 C.ar    1  UNL1        0.0990
     16 C         143.9365  140.7034  158.6991 C.ar    1  UNL1        0.0252
     17 O         138.7083  137.2779  165.4402 O.3     1  UNL1       -0.4690
     18 C         138.1551  138.4133  166.2493 C.3     1  UNL1        0.2508
     19 C         138.5763  139.8218  165.9511 C.ar    1  UNL1        0.1026
     20 C         139.6965  140.4497  166.7262 C.ar    1  UNL1        0.0184
     21 C         140.1177  141.8581  166.4280 C.ar    1  UNL1        0.0028
     22 C         139.4186  142.6387  165.3547 C.ar    1  UNL1        0.0177
     23 C         139.8398  144.0471  165.0566 C.ar    1  UNL1        0.0015
     24 C         139.1407  144.8277  163.9833 C.ar    1  UNL1        0.0001
     25 C         138.0204  144.1998  163.2082 C.ar    1  UNL1        0.0015
     26 C         137.5992  142.7914  163.5064 C.ar    1  UNL1        0.0191
     27 C         138.2983  142.0109  164.5796 C.ar    1  UNL1        0.0810
     28 N         137.8772  140.6024  164.8778 N.ar    1  UNL1       -0.2460
@<TRIPOS>BOND
     1     7     8    1
     2     8     9   am
     3     9    10    2
     4     9    11    1
     5    11    12   ar
     6    12    13   ar
     7    13    14   ar
     8    14    15   ar
     9    15    16   ar
    10     8     1    1
    11     1     2   ar
    12     2     3   ar
    13     3     4   ar
    14     4    17    1
    15    17    18    1
    16    18    19    1
    17    19    20   ar
    18    20    21   ar
    19    21    22   ar
    20    22    23   ar
    21    23    24   ar
    22    24    25   ar
    23    25    26   ar
    24    26    27   ar
    25    27    28   ar
    26     4     5   ar
    27     5     6   ar
    28    16    11   ar
    29     6     1   ar
    30    28    19   ar
    31    27    22   ar
@<TRIPOS>MOLECULE
*****
 28 31 0 0 0
SMALL
GASTEIGER

@<TRIPOS>ATOM
      1 C         138.9523  139.3140  165.5798 C.ar    1  UNL1        0.0544
      2 C         139.4943  137.9879  165.1351 C.ar    1  UNL1        0.0180
      3 C         139.3476  137.5592  163.7051 C.ar    1  UNL1        0.0382
      4 C         138.6589  138.4565  162.7200 C.ar    1  UNL1        0.1392
      5 C         138.1169  139.7825  163.1647 C.ar    1  UNL1        0.0382
      6 C         138.2636  140.2113  164.5946 C.ar    1  UNL1        0.0180
      7 C         138.1077  139.2811  168.0366 C.3     1  UNL1        0.1203
      8 N         139.0989  139.7427  167.0097 N.am    1  UNL1       -0.2534
      9 C         140.2368  140.6331  167.4127 C.2     1  UNL1        0.2529
     10 O         141.2279  141.0948  166.3859 O.2     1  UNL1       -0.2696
     11 C         140.3835  141.0619  168.8427 C.ar    1  UNL1        0.0570
     12 C         140.9806  140.1239  169.8494 C.ar    1  UNL1        0.0252
     13 C         141.1274  140.5527  171.2793 C.ar    1  UNL1        0.0990
     14 N         140.6769  141.9195  171.7025 N.ar    1  UNL1       -0.2423
     15 C         140.0797  142.8575  170.6957 C.ar    1  UNL1        0.0990
     16 C         139.9330  142.4287  169.2658 C.ar    1  UNL1        0.0252
     17 O         138.5123  138.0277  161.2901 O.3     1  UNL1       -0.4690
     18 C         139.6028  138.3223  160.3031 C.3     1  UNL1        0.2508
     19 C         140.8901  138.9357  160.7687 C.ar    1  UNL1        0.1026
     20 C         142.0277  138.0569  161.1973 C.ar    1  UNL1        0.0184
     21 C         143.3149  138.6702  161.6628 C.ar    1  UNL1        0.0028
     22 C         143.4647  140.1623  161.6998 C.ar    1  UNL1        0.0177
     23 C         144.7519  140.7756  162.1653 C.ar    1  UNL1        0.0015
     24 C         144.9016  142.2677  162.2022 C.ar    1  UNL1        0.0001
     25 C         143.7640  143.1464  161.7736 C.ar    1  UNL1        0.0015
     26 C         142.4767  142.5331  161.3081 C.ar    1  UNL1        0.0191
     27 C         142.3271  141.0411  161.2712 C.ar    1  UNL1        0.0810
     28 N         141.0397  140.4277  160.8056 N.ar    1  UNL1       -0.2460
@<TRIPOS>BOND
     1     7     8    1
     2     8     9   am
     3     9    10    2
     4     9    11    1
     5    11    12   ar
     6    12    13   ar
     7    13    14   ar
     8    14    15   ar
     9    15    16   ar
    10     8     1    1
    11     1     2   ar
    12     2     3   ar
    13     3     4   ar
    14     4    17    1
    15    17    18    1
    16    18    19    1
    17    19    20   ar
    18    20    21   ar
    19    21    22   ar
    20    22    23   ar
    21    23    24   ar
    22    24    25   ar
    23    25    26   ar
    24    26    27   ar
    25    27    28   ar
    26     4     5   ar
    27     5     6   ar
    28    16    11   ar
    29     6     1   ar
    30    28    19   ar
    31    27    22   ar
@<TRIPOS>MOLECULE
*****
 28 31 0 0 0
SMALL
GASTEIGER

@<TRIPOS>ATOM
      1 C         143.5776  139.3595  162.2419 C.ar    1  UNL1        0.0544
      2 C         143.8538  140.4135  161.2109 C.ar    1  UNL1        0.0180
      3 C         143.7281  140.0870  159.7522 C.ar    1  UNL1        0.0382
      4 C         143.3263  138.7066  159.3246 C.ar    1  UNL1        0.1392
      5 C         143.0501  137.6526  160.3555 C.ar    1  UNL1        0.0382
      6 C         143.1757  137.9790  161.8141 C.ar    1  UNL1        0.0180
      7 C         145.0447  139.6286  164.3691 C.3     1  UNL1        0.1203
      8 N         143.7032  139.6859  163.7005 N.am    1  UNL1       -0.2534
      9 C         142.4873  140.0697  164.4905 C.2     1  UNL1        0.2529
     10 O         141.1458  140.1270  163.8220 O.2     1  UNL1       -0.2696
     11 C         142.6129  140.3962  165.9492 C.ar    1  UNL1        0.0570
     12 C         142.4813  139.3096  166.9750 C.ar    1  UNL1        0.0252
     13 C         142.6068  139.6360  168.4336 C.ar    1  UNL1        0.0990
     14 N         142.8640  141.0490  168.8666 N.ar    1  UNL1       -0.2423
     15 C         142.9956  142.1356  167.8408 C.ar    1  UNL1        0.0990
     16 C         142.8701  141.8091  166.3821 C.ar    1  UNL1        0.0252
     17 O         143.2007  138.3801  157.8660 O.3     1  UNL1       -0.4690
     18 C         142.1531  137.4123  157.4015 C.3     1  UNL1        0.2508
     19 C         142.5577  136.0818  156.8391 C.ar    1  UNL1        0.1026
     20 C         142.0869  135.6693  155.4759 C.ar    1  UNL1        0.0184
     21 C         142.4915  134.3390  154.9135 C.ar    1  UNL1        0.0028
     22 C         143.3669  133.4210  155.7141 C.ar    1  UNL1        0.0177
     23 C         143.7715  132.0907  155.1517 C.ar    1  UNL1        0.0015
     24 C         144.6469  131.1728  155.9524 C.ar    1  UNL1        0.0001
     25 C         145.1178  131.5853  157.3155 C.ar    1  UNL1        0.0015
     26 C         144.7132  132.9157  157.8780 C.ar    1  UNL1        0.0191
     27 C         143.8378  133.8335  157.0773 C.ar    1  UNL1        0.0810
     28 N         143.4331  135.1640  157.6397 N.ar    1  UNL1       -0.2460
@<TRIPOS>BOND
     1     7     8    1
     2     8     9   am
     3     9    10    2
     4     9    11    1
     5    11    12   ar
     6    12    13   ar
     7    13    14   ar
     8    14    15   ar
     9    15    16   ar
    10     8     1    1
    11     1     2   ar
    12     2     3   ar
    13     3     4   ar
    14     4    17    1
    15    17    18    1
    16    18    19    1
    17    19    20   ar
    18    20    21   ar
    19    21    22   ar
    20    22    23   ar
    21    23    24   ar
    22    24    25   ar
    23    25    26   ar
    24    26    27   ar
    25    27    28   ar
    26     4     5   ar
    27     5     6   ar
    28    16    11   ar
    29     6     1   ar
    30    28    19   ar
    31    27    22   ar
@<TRIPOS>MOLECULE
*****
 28 31 0 0 0
SMALL
GASTEIGER

@<TRIPOS>ATOM
      1 C         139.2048  139.1684  165.3044 C.ar    1  UNL1        0.0544
      2 C         138.3343  139.8971  164.3240 C.ar    1  UNL1        0.0180
      3 C         138.3035  139.4701  162.8864 C.ar    1  UNL1        0.0382
      4 C         139.1432  138.3143  162.4292 C.ar    1  UNL1        0.1392
      5 C         140.0137  137.5855  163.4095 C.ar    1  UNL1        0.0382
      6 C         140.0445  138.0125  164.8471 C.ar    1  UNL1        0.0180
      7 C         138.1396  139.1712  167.6740 C.3     1  UNL1        0.1203
      8 N         139.2357  139.5953  166.7420 N.am    1  UNL1       -0.2534
      9 C         140.3626  140.4465  167.2475 C.2     1  UNL1        0.2529
     10 O         141.4587  140.8706  166.3154 O.2     1  UNL1       -0.2696
     11 C         140.3935  140.8735  168.6851 C.ar    1  UNL1        0.0570
     12 C         140.0171  142.2765  169.0590 C.ar    1  UNL1        0.0252
     13 C         140.0480  142.7036  170.4966 C.ar    1  UNL1        0.0990
     14 N         140.4553  141.7276  171.5603 N.ar    1  UNL1       -0.2423
     15 C         140.8317  140.3245  171.1865 C.ar    1  UNL1        0.0990
     16 C         140.8008  139.8975  169.7488 C.ar    1  UNL1        0.0252
     17 O         139.1123  137.8873  160.9916 O.3     1  UNL1       -0.4690
     18 C         139.9253  138.6280  159.9716 C.3     1  UNL1        0.2508
     19 C         140.7420  139.8171  160.3830 C.ar    1  UNL1        0.1026
     20 C         140.1888  141.2012  160.2154 C.ar    1  UNL1        0.0184
     21 C         141.0055  142.3902  160.6268 C.ar    1  UNL1        0.0028
     22 C         142.3754  142.1951  161.2059 C.ar    1  UNL1        0.0177
     23 C         143.1921  143.3841  161.6174 C.ar    1  UNL1        0.0015
     24 C         144.5619  143.1890  162.1964 C.ar    1  UNL1        0.0001
     25 C         145.1151  141.8048  162.3641 C.ar    1  UNL1        0.0015
     26 C         144.2985  140.6158  161.9527 C.ar    1  UNL1        0.0191
     27 C         142.9286  140.8110  161.3736 C.ar    1  UNL1        0.0810
     28 N         142.1119  139.6219  160.9621 N.ar    1  UNL1       -0.2460
@<TRIPOS>BOND
     1     7     8    1
     2     8     9   am
     3     9    10    2
     4     9    11    1
     5    11    12   ar
     6    12    13   ar
     7    13    14   ar
     8    14    15   ar
     9    15    16   ar
    10     8     1    1
    11     1     2   ar
    12     2     3   ar
    13     3     4   ar
    14     4    17    1
    15    17    18    1
    16    18    19    1
    17    19    20   ar
    18    20    21   ar
    19    21    22   ar
    20    22    23   ar
    21    23    24   ar
    22    24    25   ar
    23    25    26   ar
    24    26    27   ar
    25    27    28   ar
    26     4     5   ar
    27     5     6   ar
    28    16    11   ar
    29     6     1   ar
    30    28    19   ar
    31    27    22   ar
@<TRIPOS>MOLECULE
*****
 28 31 0 0 0
SMALL
GASTEIGER

@<TRIPOS>ATOM
      1 C         139.2103  140.5914  165.1494 C.ar    1  UNL1        0.0544
      2 C         138.1154  141.4441  164.5802 C.ar    1  UNL1        0.0180
      3 C         137.5124  141.1014  163.2501 C.ar    1  UNL1        0.0382
      4 C         138.0044  139.9060  162.4892 C.ar    1  UNL1        0.1392
      5 C         139.0993  139.0532  163.0584 C.ar    1  UNL1        0.0382
      6 C         139.7022  139.3959  164.3885 C.ar    1  UNL1        0.0180
      7 C         139.5544  140.0571  167.6685 C.3     1  UNL1        0.1203
      8 N         139.8132  140.9340  166.4794 N.am    1  UNL1       -0.2534
      9 C         140.6749  142.1536  166.6203 C.2     1  UNL1        0.2529
     10 O         140.9337  143.0306  165.4312 O.2     1  UNL1       -0.2696
     11 C         141.2779  142.4963  167.9504 C.ar    1  UNL1        0.0570
     12 C         140.4925  143.2979  168.9457 C.ar    1  UNL1        0.0252
     13 C         141.0955  143.6406  170.2757 C.ar    1  UNL1        0.0990
     14 N         142.4838  143.1818  170.6105 N.ar    1  UNL1       -0.2423
     15 C         143.2692  142.3802  169.6151 C.ar    1  UNL1        0.0990
     16 C         142.6662  142.0375  168.2851 C.ar    1  UNL1        0.0252
     17 O         137.4014  139.5633  161.1592 O.3     1  UNL1       -0.4690
     18 C         138.2596  139.5447  159.9291 C.3     1  UNL1        0.2508
     19 C         138.0856  140.5999  158.8772 C.ar    1  UNL1        0.1026
     20 C         138.8335  141.8957  158.9839 C.ar    1  UNL1        0.0184
     21 C         138.6596  142.9509  157.9320 C.ar    1  UNL1        0.0028
     22 C         137.7377  142.7101  156.7734 C.ar    1  UNL1        0.0177
     23 C         137.5638  143.7653  155.7216 C.ar    1  UNL1        0.0015
     24 C         136.6419  143.5245  154.5631 C.ar    1  UNL1        0.0001
     25 C         135.8940  142.2286  154.4564 C.ar    1  UNL1        0.0015
     26 C         136.0680  141.1735  155.5082 C.ar    1  UNL1        0.0191
     27 C         136.9898  141.4143  156.6668 C.ar    1  UNL1        0.0810
     28 N         137.1638  140.3591  157.7187 N.ar    1  UNL1       -0.2460
@<TRIPOS>BOND
     1     7     8    1
     2     8     9   am
     3     9    10    2
     4     9    11    1
     5    11    12   ar
     6    12    13   ar
     7    13    14   ar
     8    14    15   ar
     9    15    16   ar
    10     8     1    1
    11     1     2   ar
    12     2     3   ar
    13     3     4   ar
    14     4    17    1
    15    17    18    1
    16    18    19    1
    17    19    20   ar
    18    20    21   ar
    19    21    22   ar
    20    22    23   ar
    21    23    24   ar
    22    24    25   ar
    23    25    26   ar
    24    26    27   ar
    25    27    28   ar
    26     4     5   ar
    27     5     6   ar
    28    16    11   ar
    29     6     1   ar
    30    28    19   ar
    31    27    22   ar
@<TRIPOS>MOLECULE
*****
 28 31 0 0 0
SMALL
GASTEIGER

@<TRIPOS>ATOM
      1 C         141.3011  139.1453  165.4923 C.ar    1  UNL1        0.0544
      2 C         139.9918  138.4485  165.2687 C.ar    1  UNL1        0.0180
      3 C         139.6324  137.9483  163.9009 C.ar    1  UNL1        0.0382
      4 C         140.5823  138.1450  162.7569 C.ar    1  UNL1        0.1392
      5 C         141.8917  138.8418  162.9805 C.ar    1  UNL1        0.0382
      6 C         142.2511  139.3419  164.3482 C.ar    1  UNL1        0.0180
      7 C         142.8115  139.0349  167.6034 C.3     1  UNL1        0.1203
      8 N         141.6606  139.6455  166.8600 N.am    1  UNL1       -0.2534
      9 C         140.8691  140.7562  167.4843 C.2     1  UNL1        0.2529
     10 O         139.7181  141.3668  166.7409 O.2     1  UNL1       -0.2696
     11 C         141.2285  141.2564  168.8520 C.ar    1  UNL1        0.0570
     12 C         142.1910  142.3967  169.0046 C.ar    1  UNL1        0.0252
     13 C         142.5504  142.8970  170.3723 C.ar    1  UNL1        0.0990
     14 N         141.9473  142.2569  171.5875 N.ar    1  UNL1       -0.2423
     15 C         140.9847  141.1167  171.4349 C.ar    1  UNL1        0.0990
     16 C         140.6253  140.6164  170.0672 C.ar    1  UNL1        0.0252
     17 O         140.2229  137.6448  161.3892 O.3     1  UNL1       -0.4690
     18 C         139.6674  138.5911  160.3665 C.3     1  UNL1        0.2508
     19 C         139.6988  140.0697  160.6176 C.ar    1  UNL1        0.1026
     20 C         140.7014  140.9299  159.9071 C.ar    1  UNL1        0.0184
     21 C         140.7329  142.4084  160.1581 C.ar    1  UNL1        0.0028
     22 C         139.7617  143.0267  161.1197 C.ar    1  UNL1        0.0177
     23 C         139.7932  144.5052  161.3707 C.ar    1  UNL1        0.0015
     24 C         138.8220  145.1234  162.3323 C.ar    1  UNL1        0.0001
     25 C         137.8194  144.2632  163.0428 C.ar    1  UNL1        0.0015
     26 C         137.7880  142.7848  162.7918 C.ar    1  UNL1        0.0191
     27 C         138.7591  142.1665  161.8302 C.ar    1  UNL1        0.0810
     28 N         138.7277  140.6879  161.5791 N.ar    1  UNL1       -0.2460
@<TRIPOS>BOND
     1     7     8    1
     2     8     9   am
     3     9    10    2
     4     9    11    1
     5    11    12   ar
     6    12    13   ar
     7    13    14   ar
     8    14    15   ar
     9    15    16   ar
    10     8     1    1
    11     1     2   ar
    12     2     3   ar
    13     3     4   ar
    14     4    17    1
    15    17    18    1
    16    18    19    1
    17    19    20   ar
    18    20    21   ar
    19    21    22   ar
    20    22    23   ar
    21    23    24   ar
    22    24    25   ar
    23    25    26   ar
    24    26    27   ar
    25    27    28   ar
    26     4     5   ar
    27     5     6   ar
    28    16    11   ar
    29     6     1   ar
    30    28    19   ar
    31    27    22   ar
@<TRIPOS>MOLECULE
*****
 28 31 0 0 0
SMALL
GASTEIGER

@<TRIPOS>ATOM
      1 C         139.5254  139.2659  159.3888 C.ar    1  UNL1        0.0544
      2 C         138.9986  138.4884  160.5584 C.ar    1  UNL1        0.0180
      3 C         138.1809  139.1778  161.6102 C.ar    1  UNL1        0.0382
      4 C         137.8901  140.6446  161.4924 C.ar    1  UNL1        0.1392
      5 C         138.4169  141.4221  160.3228 C.ar    1  UNL1        0.0382
      6 C         139.2345  140.7328  159.2710 C.ar    1  UNL1        0.0180
      7 C         139.6814  138.0504  157.0979 C.3     1  UNL1        0.1203
      8 N         140.3430  138.5766  158.3370 N.am    1  UNL1       -0.2534
      9 C         141.8223  138.4136  158.5242 C.2     1  UNL1        0.2529
     10 O         142.4839  138.9398  159.7633 O.2     1  UNL1       -0.2696
     11 C         142.6400  137.7242  157.4724 C.ar    1  UNL1        0.0570
     12 C         143.3077  138.5272  156.3957 C.ar    1  UNL1        0.0252
     13 C         144.1254  137.8380  155.3439 C.ar    1  UNL1        0.0990
     14 N         144.2754  136.3457  155.3688 N.ar    1  UNL1       -0.2423
     15 C         143.6076  135.5427  156.4455 C.ar    1  UNL1        0.0990
     16 C         142.7899  136.2320  157.4973 C.ar    1  UNL1        0.0252
     17 O         137.0725  141.3339  162.5442 O.3     1  UNL1       -0.4690
     18 C         137.7114  141.7556  163.8341 C.3     1  UNL1        0.2508
     19 C         138.9112  142.6560  163.8176 C.ar    1  UNL1        0.1026
     20 C         138.7899  144.0576  163.2974 C.ar    1  UNL1        0.0184
     21 C         139.9895  144.9579  163.2809 C.ar    1  UNL1        0.0028
     22 C         141.3105  144.4565  163.7846 C.ar    1  UNL1        0.0177
     23 C         142.5101  145.3568  163.7680 C.ar    1  UNL1        0.0015
     24 C         143.8311  144.8554  164.2717 C.ar    1  UNL1        0.0001
     25 C         143.9524  143.4537  164.7918 C.ar    1  UNL1        0.0015
     26 C         142.7527  142.5535  164.8083 C.ar    1  UNL1        0.0191
     27 C         141.4318  143.0549  164.3047 C.ar    1  UNL1        0.0810
     28 N         140.2321  142.1546  164.3212 N.ar    1  UNL1       -0.2460
@<TRIPOS>BOND
     1     7     8    1
     2     8     9   am
     3     9    10    2
     4     9    11    1
     5    11    12   ar
     6    12    13   ar
     7    13    14   ar
     8    14    15   ar
     9    15    16   ar
    10     8     1    1
    11     1     2   ar
    12     2     3   ar
    13     3     4   ar
    14     4    17    1
    15    17    18    1
    16    18    19    1
    17    19    20   ar
    18    20    21   ar
    19    21    22   ar
    20    22    23   ar
    21    23    24   ar
    22    24    25   ar
    23    25    26   ar
    24    26    27   ar
    25    27    28   ar
    26     4     5   ar
    27     5     6   ar
    28    16    11   ar
    29     6     1   ar
    30    28    19   ar
    31    27    22   ar
@<TRIPOS>MOLECULE
*****
 28 31 0 0 0
SMALL
GASTEIGER

@<TRIPOS>ATOM
      1 C         141.5841  139.4727  165.1626 C.ar    1  UNL1        0.0544
      2 C         142.3181  140.1435  164.0395 C.ar    1  UNL1        0.0180
      3 C         142.5290  139.4190  162.7431 C.ar    1  UNL1        0.0382
      4 C         142.0060  138.0239  162.5698 C.ar    1  UNL1        0.1392
      5 C         141.2720  137.3532  163.6929 C.ar    1  UNL1        0.0382
      6 C         141.0610  138.0776  164.9893 C.ar    1  UNL1        0.0180
      7 C         140.2855  141.2234  166.5764 C.3     1  UNL1        0.1203
      8 N         141.3731  140.1971  166.4591 N.am    1  UNL1       -0.2534
      9 C         142.2498  139.8952  167.6381 C.2     1  UNL1        0.2529
     10 O         143.3374  138.8689  167.5208 O.2     1  UNL1       -0.2696
     11 C         142.0389  140.6196  168.9346 C.ar    1  UNL1        0.0570
     12 C         142.7779  141.8956  169.2096 C.ar    1  UNL1        0.0252
     13 C         142.5670  142.6200  170.5060 C.ar    1  UNL1        0.0990
     14 N         141.6171  142.0683  171.5276 N.ar    1  UNL1       -0.2423
     15 C         140.8781  140.7923  171.2526 C.ar    1  UNL1        0.0990
     16 C         141.0890  140.0679  169.9561 C.ar    1  UNL1        0.0252
     17 O         142.2169  137.2996  161.2733 O.3     1  UNL1       -0.4690
     18 C         142.7582  138.0345  160.0830 C.3     1  UNL1        0.2508
     19 C         142.2555  137.7082  158.7079 C.ar    1  UNL1        0.1026
     20 C         141.0012  138.3519  158.1956 C.ar    1  UNL1        0.0184
     21 C         140.4984  138.0257  156.8206 C.ar    1  UNL1        0.0028
     22 C         141.2501  137.0558  155.9577 C.ar    1  UNL1        0.0177
     23 C         140.7473  136.7296  154.5826 C.ar    1  UNL1        0.0015
     24 C         141.4990  135.7597  153.7198 C.ar    1  UNL1        0.0001
     25 C         142.7533  135.1161  154.2321 C.ar    1  UNL1        0.0015
     26 C         143.2560  135.4423  155.6071 C.ar    1  UNL1        0.0191
     27 C         142.5044  136.4122  156.4699 C.ar    1  UNL1        0.0810
     28 N         143.0071  136.7384  157.8451 N.ar    1  UNL1       -0.2460
@<TRIPOS>BOND
     1     7     8    1
     2     8     9   am
     3     9    10    2
     4     9    11    1
     5    11    12   ar
     6    12    13   ar
     7    13    14   ar
     8    14    15   ar
     9    15    16   ar
    10     8     1    1
    11     1     2   ar
    12     2     3   ar
    13     3     4   ar
    14     4    17    1
    15    17    18    1
    16    18    19    1
    17    19    20   ar
    18    20    21   ar
    19    21    22   ar
    20    22    23   ar
    21    23    24   ar
    22    24    25   ar
    23    25    26   ar
    24    26    27   ar
    25    27    28   ar
    26     4     5   ar
    27     5     6   ar
    28    16    11   ar
    29     6     1   ar
    30    28    19   ar
    31    27    22   ar
