@<TRIPOS>MOLECULE
*****
 34 37 0 0 0
SMALL
GASTEIGER

@<TRIPOS>ATOM
      1 O         137.0729  141.3948  162.7144 O.3     1  UNL1       -0.4543
      2 C         137.9070  142.2633  163.6089 C.ar    1  UNL1        0.2311
      3 N         138.0557  143.7253  163.3084 N.ar    1  UNL1       -0.1892
      4 C         138.8898  144.5937  164.2028 C.ar    1  UNL1        0.2029
      5 N         139.5751  144.0001  165.3978 N.ar    1  UNL1       -0.2046
      6 C         139.4264  142.5381  165.6983 C.ar    1  UNL1        0.1716
      7 C         138.5923  141.6697  164.8039 C.ar    1  UNL1        0.1098
      8 C         138.6291  140.2725  165.3486 C.ar    1  UNL1        0.1283
      9 N         139.4860  140.2775  166.5797 N.ar    1  UNL1       -0.1619
     10 N         139.9787  141.6777  166.7959 N.ar    1  UNL1       -0.2090
     11 C         140.8677  142.1369  167.9134 C.ar    1  UNL1        0.1182
     12 C         140.3516  143.1111  168.9304 C.ar    1  UNL1        0.0223
     13 C         141.2406  143.5703  170.0479 C.ar    1  UNL1        0.0017
     14 C         142.6458  143.0553  170.1484 C.ar    1  UNL1        0.0032
     15 C         143.1620  142.0812  169.1313 C.ar    1  UNL1        0.0385
     16 C         142.2730  141.6219  168.0138 C.ar    1  UNL1        0.1563
     17 O         142.7892  140.6477  166.9968 O.3     1  UNL1       -0.4699
     18 C         142.8450  139.1842  167.3208 C.3     1  UNL1        0.2525
     19 C         137.7125  140.6594  161.5742 C.3     1  UNL1        0.2455
     20 C         138.6258  141.3856  160.6315 C.2     1  UNL1        0.2675
     21 O         139.9109  140.7486  160.1924 O.2     1  UNL1       -0.2708
     22 N         138.2540  142.7487  160.1280 N.am    1  UNL1       -0.2664
     23 H         137.4105  143.1667  160.4162 H       1  UNL1        0.1564
     24 C         139.1672  143.4749  159.1853 C.ar    1  UNL1        0.1342
     25 C         139.2571  143.0481  157.7501 C.ar    1  UNL1        0.0342
     26 C         140.1703  143.7743  156.8075 C.ar    1  UNL1        0.0001
     27 C         140.9936  144.9274  157.3000 C.ar    1  UNL1       -0.0026
     28 C         141.9068  145.6536  156.3573 C.3     1  UNL1        0.0327
     29 C         140.9038  145.3542  158.7352 C.ar    1  UNL1        0.0960
     30 N         139.9905  144.6279  159.6778 N.ar    1  UNL1       -0.2293
     31 C         137.4390  139.1978  161.3768 C.3     1  UNL1        0.0852
     32 C         138.2537  138.1761  162.1132 C.3     1  UNL1        0.1465
     33 C         140.6209  137.4613  162.9104 C.3     1  UNL1        0.1741
     34 O         139.6110  138.5370  162.6399 O.3     1  UNL1       -0.3510
@<TRIPOS>BOND
     1    33    34    1
     2    34    32    1
     3    32    31    1
     4    19    31    1
     5    19     1    1
     6     1     2    1
     7     2     3   ar
     8     3     4   ar
     9     4     5   ar
    10     5     6   ar
    11     6     7   ar
    12     7     8   ar
    13     8     9   ar
    14     9    10   ar
    15    10    11    1
    16    11    12   ar
    17    12    13   ar
    18    13    14   ar
    19    14    15   ar
    20    15    16   ar
    21    16    17    1
    22    17    18    1
    23    19    20    1
    24    20    21    2
    25    20    22   am
    26    22    24    1
    27    24    25   ar
    28    25    26   ar
    29    26    27   ar
    30    27    28    1
    31    27    29   ar
    32    29    30   ar
    33     7     2   ar
    34    16    11   ar
    35    30    24   ar
    36    10     6   ar
    37    22    23    1
@<TRIPOS>MOLECULE
*****
 34 37 0 0 0
SMALL
GASTEIGER

@<TRIPOS>ATOM
      1 O         137.2230  141.7139  162.3313 O.3     1  UNL1       -0.4543
      2 C         138.0348  142.5342  163.2895 C.ar    1  UNL1        0.2311
      3 N         138.2124  144.0049  163.0542 N.ar    1  UNL1       -0.1892
      4 C         139.0242  144.8251  164.0124 C.ar    1  UNL1        0.2029
      5 N         139.6585  144.1745  165.2059 N.ar    1  UNL1       -0.2046
      6 C         139.4809  142.7038  165.4412 C.ar    1  UNL1        0.1716
      7 C         138.6691  141.8836  164.4831 C.ar    1  UNL1        0.1098
      8 C         138.6690  140.4653  164.9715 C.ar    1  UNL1        0.1283
      9 N         139.4808  140.4090  166.2316 N.ar    1  UNL1       -0.1619
     10 N         139.9826  141.7925  166.5219 N.ar    1  UNL1       -0.2090
     11 C         140.8362  142.1941  167.6881 C.ar    1  UNL1        0.1182
     12 C         140.2866  143.1130  168.7386 C.ar    1  UNL1        0.0223
     13 C         141.1402  143.5146  169.9048 C.ar    1  UNL1        0.0017
     14 C         142.5435  142.9973  170.0205 C.ar    1  UNL1        0.0032
     15 C         143.0930  142.0784  168.9700 C.ar    1  UNL1        0.0385
     16 C         142.2394  141.6768  167.8038 C.ar    1  UNL1        0.1563
     17 O         142.7890  140.7579  166.7534 O.3     1  UNL1       -0.4699
     18 C         142.8305  139.2786  166.9981 C.3     1  UNL1        0.2525
     19 C         137.9091  140.8251  161.3367 C.3     1  UNL1        0.2455
     20 C         139.1313  141.3105  160.6150 C.2     1  UNL1        0.2675
     21 O         139.0554  142.5339  159.7505 O.2     1  UNL1       -0.2708
     22 N         140.4293  140.5725  160.7579 N.am    1  UNL1       -0.2664
     23 H         140.4791  139.7695  161.3254 H       1  UNL1        0.1564
     24 C         141.6514  141.0578  160.0363 C.ar    1  UNL1        0.1342
     25 C         142.0725  140.4064  158.7524 C.ar    1  UNL1        0.0342
     26 C         143.2947  140.8918  158.0308 C.ar    1  UNL1        0.0001
     27 C         144.0958  142.0285  158.5930 C.ar    1  UNL1       -0.0026
     28 C         145.3179  142.5139  157.8714 C.3     1  UNL1        0.0327
     29 C         143.6747  142.6799  159.8769 C.ar    1  UNL1        0.0960
     30 N         142.4525  142.1945  160.5986 N.ar    1  UNL1       -0.2293
     31 C         137.3732  139.4510  161.0638 C.3     1  UNL1        0.0852
     32 C         137.8731  138.2799  161.8566 C.3     1  UNL1        0.1465
     33 C         140.1166  137.5773  162.9626 C.3     1  UNL1        0.1741
     34 O         139.3031  137.8446  161.7310 O.3     1  UNL1       -0.3510
@<TRIPOS>BOND
     1    33    34    1
     2    34    32    1
     3    32    31    1
     4    19    31    1
     5    19     1    1
     6     1     2    1
     7     2     3   ar
     8     3     4   ar
     9     4     5   ar
    10     5     6   ar
    11     6     7   ar
    12     7     8   ar
    13     8     9   ar
    14     9    10   ar
    15    10    11    1
    16    11    12   ar
    17    12    13   ar
    18    13    14   ar
    19    14    15   ar
    20    15    16   ar
    21    16    17    1
    22    17    18    1
    23    19    20    1
    24    20    21    2
    25    20    22   am
    26    22    24    1
    27    24    25   ar
    28    25    26   ar
    29    26    27   ar
    30    27    28    1
    31    27    29   ar
    32    29    30   ar
    33     7     2   ar
    34    16    11   ar
    35    30    24   ar
    36    10     6   ar
    37    22    23    1
@<TRIPOS>MOLECULE
*****
 34 37 0 0 0
SMALL
GASTEIGER

@<TRIPOS>ATOM
      1 O         137.2325  140.7885  163.0750 O.3     1  UNL1       -0.4543
      2 C         138.0960  140.4540  164.2551 C.ar    1  UNL1        0.2311
      3 N         138.2590  139.0260  164.6844 N.ar    1  UNL1       -0.1892
      4 C         139.1225  138.6916  165.8644 C.ar    1  UNL1        0.2029
      5 N         139.8230  139.7851  166.6152 N.ar    1  UNL1       -0.2046
      6 C         139.6600  141.2130  166.1858 C.ar    1  UNL1        0.1716
      7 C         138.7965  141.5475  165.0058 C.ar    1  UNL1        0.1098
      8 C         138.8248  143.0354  164.8175 C.ar    1  UNL1        0.1283
      9 N         139.7058  143.6205  165.8813 N.ar    1  UNL1       -0.1619
     10 N         140.2219  142.4942  166.7269 N.ar    1  UNL1       -0.2090
     11 C         141.1390  142.6259  167.9066 C.ar    1  UNL1        0.1182
     12 C         140.6342  143.2245  169.1859 C.ar    1  UNL1        0.0223
     13 C         141.5513  143.3563  170.3655 C.ar    1  UNL1        0.0017
     14 C         142.9733  142.8894  170.2658 C.ar    1  UNL1        0.0032
     15 C         143.4781  142.2908  168.9865 C.ar    1  UNL1        0.0385
     16 C         142.5610  142.1590  167.8069 C.ar    1  UNL1        0.1563
     17 O         143.0659  141.5604  166.5275 O.3     1  UNL1       -0.4699
     18 C         143.6357  142.4455  165.4589 C.3     1  UNL1        0.2525
     19 C         137.7525  140.5833  161.6830 C.3     1  UNL1        0.2455
     20 C         138.4027  141.7192  160.9502 C.2     1  UNL1        0.2675
     21 O         137.9668  143.1298  161.2150 O.2     1  UNL1       -0.2708
     22 N         139.4886  141.4445  159.9526 N.am    1  UNL1       -0.2664
     23 H         139.7746  140.5186  159.7788 H       1  UNL1        0.1564
     24 C         140.1387  142.5804  159.2198 C.ar    1  UNL1        0.1342
     25 C         141.5490  142.9740  159.5458 C.ar    1  UNL1        0.0342
     26 C         142.1991  144.1098  158.8130 C.ar    1  UNL1        0.0001
     27 C         141.4390  144.8522  157.7541 C.ar    1  UNL1       -0.0026
     28 C         142.0891  145.9881  157.0212 C.3     1  UNL1        0.0327
     29 C         140.0287  144.4586  157.4280 C.ar    1  UNL1        0.0960
     30 N         139.3786  143.3226  158.1609 N.ar    1  UNL1       -0.2293
     31 C         137.6224  139.2422  161.0239 C.3     1  UNL1        0.0852
     32 C         138.7194  138.2286  161.1627 C.3     1  UNL1        0.1465
     33 C         140.9346  137.8260  162.4592 C.3     1  UNL1        0.1741
     34 O         140.1038  138.6684  161.5372 O.3     1  UNL1       -0.3510
@<TRIPOS>BOND
     1    33    34    1
     2    34    32    1
     3    32    31    1
     4    19    31    1
     5    19     1    1
     6     1     2    1
     7     2     3   ar
     8     3     4   ar
     9     4     5   ar
    10     5     6   ar
    11     6     7   ar
    12     7     8   ar
    13     8     9   ar
    14     9    10   ar
    15    10    11    1
    16    11    12   ar
    17    12    13   ar
    18    13    14   ar
    19    14    15   ar
    20    15    16   ar
    21    16    17    1
    22    17    18    1
    23    19    20    1
    24    20    21    2
    25    20    22   am
    26    22    24    1
    27    24    25   ar
    28    25    26   ar
    29    26    27   ar
    30    27    28    1
    31    27    29   ar
    32    29    30   ar
    33     7     2   ar
    34    16    11   ar
    35    30    24   ar
    36    10     6   ar
    37    22    23    1
@<TRIPOS>MOLECULE
*****
 34 37 0 0 0
SMALL
GASTEIGER

@<TRIPOS>ATOM
      1 O         141.9813  138.4752  157.4758 O.3     1  UNL1       -0.4543
      2 C         142.0276  138.3625  158.9709 C.ar    1  UNL1        0.2311
      3 N         143.3118  138.0009  159.6564 N.ar    1  UNL1       -0.1892
      4 C         143.3580  137.8883  161.1515 C.ar    1  UNL1        0.2029
      5 N         142.1200  138.1373  161.9610 N.ar    1  UNL1       -0.2046
      6 C         140.8358  138.4990  161.2755 C.ar    1  UNL1        0.1716
      7 C         140.7896  138.6116  159.7805 C.ar    1  UNL1        0.1098
      8 C         139.3903  138.9817  159.3865 C.ar    1  UNL1        0.1283
      9 N         138.5718  139.0978  160.6381 N.ar    1  UNL1       -0.1619
     10 N         139.4651  138.7995  161.8055 N.ar    1  UNL1       -0.2090
     11 C         139.0591  138.8013  163.2495 C.ar    1  UNL1        0.1182
     12 C         139.0564  137.5201  164.0295 C.ar    1  UNL1        0.0223
     13 C         138.6503  137.5220  165.4735 C.ar    1  UNL1        0.0017
     14 C         138.2471  138.8051  166.1376 C.ar    1  UNL1        0.0032
     15 C         138.2499  140.0863  165.3576 C.ar    1  UNL1        0.0385
     16 C         138.6559  140.0844  163.9136 C.ar    1  UNL1        0.1563
     17 O         138.6586  141.3657  163.1337 O.3     1  UNL1       -0.4699
     18 C         137.4635  142.2713  163.1747 C.3     1  UNL1        0.2525
     19 C         141.4254  137.3489  156.6557 C.3     1  UNL1        0.2455
     20 C         142.2189  136.0885  156.4770 C.2     1  UNL1        0.2675
     21 O         143.6990  136.0932  156.7204 O.2     1  UNL1       -0.2708
     22 N         141.5322  134.8235  156.0549 N.am    1  UNL1       -0.2664
     23 H         140.5608  134.8205  155.8952 H       1  UNL1        0.1564
     24 C         142.3256  133.5632  155.8762 C.ar    1  UNL1        0.1342
     25 C         142.6610  133.0772  154.4973 C.ar    1  UNL1        0.0342
     26 C         143.4544  131.8169  154.3185 C.ar    1  UNL1        0.0001
     27 C         143.9125  131.0424  155.5188 C.ar    1  UNL1       -0.0026
     28 C         144.7058  129.7820  155.3400 C.3     1  UNL1        0.0327
     29 C         143.5771  131.5283  156.8977 C.ar    1  UNL1        0.0960
     30 N         142.7836  132.7887  157.0764 N.ar    1  UNL1       -0.2293
     31 C         140.0761  137.4830  156.0144 C.3     1  UNL1        0.0852
     32 C         139.5413  138.8413  155.6695 C.3     1  UNL1        0.1465
     33 C         137.4282  140.2859  155.2246 C.3     1  UNL1        0.1741
     34 O         138.1148  139.1866  155.9796 O.3     1  UNL1       -0.3510
@<TRIPOS>BOND
     1    33    34    1
     2    34    32    1
     3    32    31    1
     4    19    31    1
     5    19     1    1
     6     1     2    1
     7     2     3   ar
     8     3     4   ar
     9     4     5   ar
    10     5     6   ar
    11     6     7   ar
    12     7     8   ar
    13     8     9   ar
    14     9    10   ar
    15    10    11    1
    16    11    12   ar
    17    12    13   ar
    18    13    14   ar
    19    14    15   ar
    20    15    16   ar
    21    16    17    1
    22    17    18    1
    23    19    20    1
    24    20    21    2
    25    20    22   am
    26    22    24    1
    27    24    25   ar
    28    25    26   ar
    29    26    27   ar
    30    27    28    1
    31    27    29   ar
    32    29    30   ar
    33     7     2   ar
    34    16    11   ar
    35    30    24   ar
    36    10     6   ar
    37    22    23    1
@<TRIPOS>MOLECULE
*****
 34 37 0 0 0
SMALL
GASTEIGER

@<TRIPOS>ATOM
      1 O         140.8917  145.3822  161.1205 O.3     1  UNL1       -0.4543
      2 C         140.0588  144.7664  162.2056 C.ar    1  UNL1        0.2311
      3 N         138.5636  144.8754  162.1566 N.ar    1  UNL1       -0.1892
      4 C         137.7309  144.2596  163.2415 C.ar    1  UNL1        0.2029
      5 N         138.3933  143.5348  164.3755 N.ar    1  UNL1       -0.2046
      6 C         139.8885  143.4258  164.4245 C.ar    1  UNL1        0.1716
      7 C         140.7213  144.0416  163.3395 C.ar    1  UNL1        0.1098
      8 C         142.1634  143.7741  163.6538 C.ar    1  UNL1        0.1283
      9 N         142.2219  142.9930  164.9330 N.ar    1  UNL1       -0.1619
     10 N         140.8159  142.7777  165.4093 N.ar    1  UNL1       -0.2090
     11 C         140.4088  142.0433  166.6523 C.ar    1  UNL1        0.1182
     12 C         140.6342  142.6650  167.9986 C.ar    1  UNL1        0.0223
     13 C         140.2271  141.9306  169.2415 C.ar    1  UNL1        0.0017
     14 C         139.5945  140.5745  169.1382 C.ar    1  UNL1        0.0032
     15 C         139.3691  139.9528  167.7918 C.ar    1  UNL1        0.0385
     16 C         139.7762  140.6872  166.5489 C.ar    1  UNL1        0.1563
     17 O         139.5507  140.0654  165.2026 O.3     1  UNL1       -0.4699
     18 C         138.9862  138.6794  165.1016 C.3     1  UNL1        0.2525
     19 C         140.9835  144.7194  159.7780 C.3     1  UNL1        0.2455
     20 C         141.0406  145.5532  158.5323 C.2     1  UNL1        0.2675
     21 O         142.3220  146.2261  158.1383 O.2     1  UNL1       -0.2708
     22 N         139.8163  145.7141  157.6808 N.am    1  UNL1       -0.2664
     23 H         138.9753  145.2724  157.9394 H       1  UNL1        0.1564
     24 C         139.8733  146.5478  156.4352 C.ar    1  UNL1        0.1342
     25 C         139.0745  147.8141  156.3430 C.ar    1  UNL1        0.0342
     26 C         139.1316  148.6478  155.0973 C.ar    1  UNL1        0.0001
     27 C         139.9874  148.2153  153.9438 C.ar    1  UNL1       -0.0026
     28 C         140.0445  149.0490  152.6982 C.3     1  UNL1        0.0327
     29 C         140.7862  146.9490  154.0360 C.ar    1  UNL1        0.0960
     30 N         140.7291  146.1152  155.2817 N.ar    1  UNL1       -0.2293
     31 C         141.0182  143.2230  159.6811 C.3     1  UNL1        0.0852
     32 C         142.2861  142.4810  159.9842 C.3     1  UNL1        0.1465
     33 C         144.5705  142.2548  158.7674 C.3     1  UNL1        0.1741
     34 O         143.6098  143.0643  159.5869 O.3     1  UNL1       -0.3510
@<TRIPOS>BOND
     1    33    34    1
     2    34    32    1
     3    32    31    1
     4    19    31    1
     5    19     1    1
     6     1     2    1
     7     2     3   ar
     8     3     4   ar
     9     4     5   ar
    10     5     6   ar
    11     6     7   ar
    12     7     8   ar
    13     8     9   ar
    14     9    10   ar
    15    10    11    1
    16    11    12   ar
    17    12    13   ar
    18    13    14   ar
    19    14    15   ar
    20    15    16   ar
    21    16    17    1
    22    17    18    1
    23    19    20    1
    24    20    21    2
    25    20    22   am
    26    22    24    1
    27    24    25   ar
    28    25    26   ar
    29    26    27   ar
    30    27    28    1
    31    27    29   ar
    32    29    30   ar
    33     7     2   ar
    34    16    11   ar
    35    30    24   ar
    36    10     6   ar
    37    22    23    1
@<TRIPOS>MOLECULE
*****
 34 37 0 0 0
SMALL
GASTEIGER

@<TRIPOS>ATOM
      1 O         137.2325  141.7934  162.9063 O.3     1  UNL1       -0.4543
      2 C         137.9755  141.6894  161.6073 C.ar    1  UNL1        0.2311
      3 N         138.1688  142.9078  160.7541 N.ar    1  UNL1       -0.1892
      4 C         138.9118  142.8037  159.4553 C.ar    1  UNL1        0.2029
      5 N         139.4615  141.4811  159.0096 N.ar    1  UNL1       -0.2046
      6 C         139.2683  140.2627  159.8628 C.ar    1  UNL1        0.1716
      7 C         138.5253  140.3668  161.1617 C.ar    1  UNL1        0.1098
      8 C         138.4914  139.0037  161.7870 C.ar    1  UNL1        0.1283
      9 N         139.2135  138.0571  160.8745 N.ar    1  UNL1       -0.1619
     10 N         139.6936  138.8352  159.6853 N.ar    1  UNL1       -0.2090
     11 C         140.4639  138.2829  158.5227 C.ar    1  UNL1        0.1182
     12 C         139.7358  137.7804  157.3114 C.ar    1  UNL1        0.0223
     13 C         140.5061  137.2281  156.1488 C.ar    1  UNL1        0.0017
     14 C         142.0045  137.1782  156.1975 C.ar    1  UNL1        0.0032
     15 C         142.7325  137.6806  157.4089 C.ar    1  UNL1        0.0385
     16 C         141.9623  138.2330  158.5715 C.ar    1  UNL1        0.1563
     17 O         142.6904  138.7354  159.7828 O.3     1  UNL1       -0.4699
     18 C         143.0330  137.7915  160.8971 C.3     1  UNL1        0.2525
     19 C         137.8930  142.4165  164.1002 C.3     1  UNL1        0.2455
     20 C         138.6191  141.5548  165.0904 C.2     1  UNL1        0.2675
     21 O         138.2389  140.1127  165.2505 O.2     1  UNL1       -0.2708
     22 N         139.7255  142.1353  165.9204 N.am    1  UNL1       -0.2664
     23 H         139.9751  143.0819  165.8153 H       1  UNL1        0.1564
     24 C         140.4517  141.2738  166.9105 C.ar    1  UNL1        0.1342
     25 C         139.9220  141.1252  168.3059 C.ar    1  UNL1        0.0342
     26 C         140.6481  140.2636  169.2960 C.ar    1  UNL1        0.0001
     27 C         141.9040  139.5505  168.8907 C.ar    1  UNL1       -0.0026
     28 C         142.6302  138.6890  169.8808 C.3     1  UNL1        0.0327
     29 C         142.4337  139.6991  167.4952 C.ar    1  UNL1        0.0960
     30 N         141.7075  140.5607  166.5051 N.ar    1  UNL1       -0.2293
     31 C         137.8273  143.9011  164.3041 C.3     1  UNL1        0.0852
     32 C         138.9192  144.7804  163.7706 C.3     1  UNL1        0.1465
     33 C         141.4859  145.1763  163.6968 C.3     1  UNL1        0.1741
     34 O         140.3129  144.2438  163.6297 O.3     1  UNL1       -0.3510
@<TRIPOS>BOND
     1    33    34    1
     2    34    32    1
     3    32    31    1
     4    19    31    1
     5    19     1    1
     6     1     2    1
     7     2     3   ar
     8     3     4   ar
     9     4     5   ar
    10     5     6   ar
    11     6     7   ar
    12     7     8   ar
    13     8     9   ar
    14     9    10   ar
    15    10    11    1
    16    11    12   ar
    17    12    13   ar
    18    13    14   ar
    19    14    15   ar
    20    15    16   ar
    21    16    17    1
    22    17    18    1
    23    19    20    1
    24    20    21    2
    25    20    22   am
    26    22    24    1
    27    24    25   ar
    28    25    26   ar
    29    26    27   ar
    30    27    28    1
    31    27    29   ar
    32    29    30   ar
    33     7     2   ar
    34    16    11   ar
    35    30    24   ar
    36    10     6   ar
    37    22    23    1
@<TRIPOS>MOLECULE
*****
 34 37 0 0 0
SMALL
GASTEIGER

@<TRIPOS>ATOM
      1 O         137.4769  141.1132  163.6587 O.3     1  UNL1       -0.4543
      2 C         138.2609  139.9994  163.0304 C.ar    1  UNL1        0.2311
      3 N         138.6190  138.7864  163.8368 N.ar    1  UNL1       -0.1892
      4 C         139.4030  137.6727  163.2084 C.ar    1  UNL1        0.2029
      5 N         139.8289  137.7720  161.7736 N.ar    1  UNL1       -0.2046
      6 C         139.4708  138.9849  160.9671 C.ar    1  UNL1        0.1716
      7 C         138.6868  140.0987  161.5955 C.ar    1  UNL1        0.1098
      8 C         138.4817  141.1634  160.5590 C.ar    1  UNL1        0.1283
      9 N         139.1390  140.7077  159.2901 N.ar    1  UNL1       -0.1619
     10 N         139.7503  139.3613  159.5423 N.ar    1  UNL1       -0.2090
     11 C         140.5080  138.5362  158.5448 C.ar    1  UNL1        0.1182
     12 C         139.7870  137.9068  157.3899 C.ar    1  UNL1        0.0223
     13 C         140.5447  137.0816  156.3924 C.ar    1  UNL1        0.0017
     14 C         142.0236  136.8859  156.5498 C.ar    1  UNL1        0.0032
     15 C         142.7446  137.5153  157.7048 C.ar    1  UNL1        0.0385
     16 C         141.9868  138.3405  158.7023 C.ar    1  UNL1        0.1563
     17 O         142.7079  138.9699  159.8572 O.3     1  UNL1       -0.4699
     18 C         143.3613  138.1054  160.8944 C.3     1  UNL1        0.2525
     19 C         138.1906  142.2243  164.3702 C.3     1  UNL1        0.2455
     20 C         139.1574  141.9096  165.4731 C.2     1  UNL1        0.2675
     21 O         140.1201  142.9571  165.9482 O.2     1  UNL1       -0.2708
     22 N         139.1613  140.5473  166.1010 N.am    1  UNL1       -0.2664
     23 H         138.5293  139.8598  165.7892 H       1  UNL1        0.1564
     24 C         140.1280  140.2325  167.2039 C.ar    1  UNL1        0.1342
     25 C         141.5302  139.8132  166.8752 C.ar    1  UNL1        0.0342
     26 C         142.4969  139.4984  167.9781 C.ar    1  UNL1        0.0001
     27 C         142.0614  139.6030  169.4097 C.ar    1  UNL1       -0.0026
     28 C         143.0281  139.2882  170.5126 C.3     1  UNL1        0.0327
     29 C         140.6592  140.0223  169.7384 C.ar    1  UNL1        0.0960
     30 N         139.6925  140.3371  168.6354 N.ar    1  UNL1       -0.2293
     31 C         137.9376  143.6500  163.9788 C.3     1  UNL1        0.0852
     32 C         139.0020  144.4332  163.2692 C.3     1  UNL1        0.1465
     33 C         139.6489  146.2426  161.5206 C.3     1  UNL1        0.1741
     34 O         138.6452  145.2808  162.0841 O.3     1  UNL1       -0.3510
@<TRIPOS>BOND
     1    33    34    1
     2    34    32    1
     3    32    31    1
     4    19    31    1
     5    19     1    1
     6     1     2    1
     7     2     3   ar
     8     3     4   ar
     9     4     5   ar
    10     5     6   ar
    11     6     7   ar
    12     7     8   ar
    13     8     9   ar
    14     9    10   ar
    15    10    11    1
    16    11    12   ar
    17    12    13   ar
    18    13    14   ar
    19    14    15   ar
    20    15    16   ar
    21    16    17    1
    22    17    18    1
    23    19    20    1
    24    20    21    2
    25    20    22   am
    26    22    24    1
    27    24    25   ar
    28    25    26   ar
    29    26    27   ar
    30    27    28    1
    31    27    29   ar
    32    29    30   ar
    33     7     2   ar
    34    16    11   ar
    35    30    24   ar
    36    10     6   ar
    37    22    23    1
@<TRIPOS>MOLECULE
*****
 34 37 0 0 0
SMALL
GASTEIGER

@<TRIPOS>ATOM
      1 O         138.1220  138.9908  162.4515 O.3     1  UNL1       -0.4543
      2 C         138.8594  139.4935  161.2458 C.ar    1  UNL1        0.2311
      3 N         139.5599  138.5266  160.3380 N.ar    1  UNL1       -0.1892
      4 C         140.2973  139.0293  159.1324 C.ar    1  UNL1        0.2029
      5 N         140.3341  140.4989  158.8346 N.ar    1  UNL1       -0.2046
      6 C         139.6336  141.4659  159.7425 C.ar    1  UNL1        0.1716
      7 C         138.8963  140.9632  160.9481 C.ar    1  UNL1        0.1098
      8 C         138.3039  142.1458  161.6557 C.ar    1  UNL1        0.1283
      9 N         138.6753  143.3794  160.8874 N.ar    1  UNL1       -0.1619
     10 N         139.4971  142.9592  159.7049 N.ar    1  UNL1       -0.2090
     11 C         140.0799  143.8720  158.6671 C.ar    1  UNL1        0.1182
     12 C         139.4241  143.9962  157.3239 C.ar    1  UNL1        0.0223
     13 C         140.0070  144.9090  156.2861 C.ar    1  UNL1        0.0017
     14 C         141.2458  145.6977  156.5916 C.ar    1  UNL1        0.0032
     15 C         141.9016  145.5735  157.9348 C.ar    1  UNL1        0.0385
     16 C         141.3188  144.6607  158.9726 C.ar    1  UNL1        0.1563
     17 O         141.9747  144.5366  160.3159 O.3     1  UNL1       -0.4699
     18 C         142.9333  143.4139  160.5815 C.3     1  UNL1        0.2525
     19 C         138.8802  138.6001  163.6854 C.3     1  UNL1        0.2455
     20 C         138.9074  139.5183  164.8712 C.2     1  UNL1        0.2675
     21 O         138.0071  140.7173  164.9122 O.2     1  UNL1       -0.2708
     22 N         139.8351  139.2375  166.0161 N.am    1  UNL1       -0.2664
     23 H         140.4260  138.4505  165.9892 H       1  UNL1        0.1564
     24 C         139.8624  140.1557  167.2018 C.ar    1  UNL1        0.1342
     25 C         140.5347  141.4927  167.0998 C.ar    1  UNL1        0.0342
     26 C         140.5620  142.4109  168.2856 C.ar    1  UNL1        0.0001
     27 C         139.9170  141.9921  169.5735 C.ar    1  UNL1       -0.0026
     28 C         139.9443  142.9103  170.7593 C.3     1  UNL1        0.0327
     29 C         139.2447  140.6551  169.6755 C.ar    1  UNL1        0.0960
     30 N         139.2174  139.7369  168.4897 N.ar    1  UNL1       -0.2293
     31 C         139.6111  137.2911  163.7335 C.3     1  UNL1        0.0852
     32 C         141.0788  137.2400  163.4284 C.3     1  UNL1        0.1465
     33 C         142.8978  139.0811  163.6560 C.3     1  UNL1        0.1741
     34 O         142.0481  138.0110  164.2747 O.3     1  UNL1       -0.3510
@<TRIPOS>BOND
     1    33    34    1
     2    34    32    1
     3    32    31    1
     4    19    31    1
     5    19     1    1
     6     1     2    1
     7     2     3   ar
     8     3     4   ar
     9     4     5   ar
    10     5     6   ar
    11     6     7   ar
    12     7     8   ar
    13     8     9   ar
    14     9    10   ar
    15    10    11    1
    16    11    12   ar
    17    12    13   ar
    18    13    14   ar
    19    14    15   ar
    20    15    16   ar
    21    16    17    1
    22    17    18    1
    23    19    20    1
    24    20    21    2
    25    20    22   am
    26    22    24    1
    27    24    25   ar
    28    25    26   ar
    29    26    27   ar
    30    27    28    1
    31    27    29   ar
    32    29    30   ar
    33     7     2   ar
    34    16    11   ar
    35    30    24   ar
    36    10     6   ar
    37    22    23    1
@<TRIPOS>MOLECULE
*****
 34 37 0 0 0
SMALL
GASTEIGER

@<TRIPOS>ATOM
      1 O         142.9073  144.1072  161.2516 O.3     1  UNL1       -0.4543
      2 C         143.5017  143.2881  162.3588 C.ar    1  UNL1        0.2311
      3 N         144.8406  142.6375  162.1746 N.ar    1  UNL1       -0.1892
      4 C         145.4351  141.8184  163.2817 C.ar    1  UNL1        0.2029
      5 N         144.6906  141.6500  164.5730 N.ar    1  UNL1       -0.2046
      6 C         143.3517  142.3007  164.7572 C.ar    1  UNL1        0.1716
      7 C         142.7573  143.1197  163.6500 C.ar    1  UNL1        0.1098
      8 C         141.4295  143.6377  164.1180 C.ar    1  UNL1        0.1283
      9 N         141.2034  143.1387  165.5144 N.ar    1  UNL1       -0.1619
     10 N         142.3914  142.3124  165.9094 N.ar    1  UNL1       -0.2090
     11 C         142.5850  141.6195  167.2256 C.ar    1  UNL1        0.1182
     12 C         143.1210  142.3801  168.4020 C.ar    1  UNL1        0.0223
     13 C         143.3147  141.6872  169.7182 C.ar    1  UNL1        0.0017
     14 C         142.9724  140.2335  169.8579 C.ar    1  UNL1        0.0032
     15 C         142.4364  139.4728  168.6815 C.ar    1  UNL1        0.0385
     16 C         142.2427  140.1657  167.3653 C.ar    1  UNL1        0.1563
     17 O         141.7067  139.4050  166.1890 O.3     1  UNL1       -0.4699
     18 C         142.6180  138.5231  165.3877 C.3     1  UNL1        0.2525
     19 C         142.3797  143.4330  160.0199 C.3     1  UNL1        0.2455
     20 C         143.2677  143.2541  158.8242 C.2     1  UNL1        0.2675
     21 O         142.9343  143.9409  157.5330 O.2     1  UNL1       -0.2708
     22 N         144.4889  142.3883  158.9197 N.am    1  UNL1       -0.2664
     23 H         144.7077  141.9376  159.7672 H       1  UNL1        0.1564
     24 C         145.3768  142.2094  157.7241 C.ar    1  UNL1        0.1342
     25 C         146.7140  142.8872  157.6748 C.ar    1  UNL1        0.0342
     26 C         147.6019  142.7082  156.4792 C.ar    1  UNL1        0.0001
     27 C         147.1526  141.8516  155.3327 C.ar    1  UNL1       -0.0026
     28 C         148.0405  141.6726  154.1371 C.3     1  UNL1        0.0327
     29 C         145.8153  141.1738  155.3820 C.ar    1  UNL1        0.0960
     30 N         144.9274  141.3528  156.5777 N.ar    1  UNL1       -0.2293
     31 C         140.9644  142.9376  159.9839 C.3     1  UNL1        0.0852
     32 C         139.8928  143.6740  160.7318 C.3     1  UNL1        0.1465
     33 C         137.9963  143.5189  162.5008 C.3     1  UNL1        0.1741
     34 O         138.7602  142.9164  161.3591 O.3     1  UNL1       -0.3510
@<TRIPOS>BOND
     1    33    34    1
     2    34    32    1
     3    32    31    1
     4    19    31    1
     5    19     1    1
     6     1     2    1
     7     2     3   ar
     8     3     4   ar
     9     4     5   ar
    10     5     6   ar
    11     6     7   ar
    12     7     8   ar
    13     8     9   ar
    14     9    10   ar
    15    10    11    1
    16    11    12   ar
    17    12    13   ar
    18    13    14   ar
    19    14    15   ar
    20    15    16   ar
    21    16    17    1
    22    17    18    1
    23    19    20    1
    24    20    21    2
    25    20    22   am
    26    22    24    1
    27    24    25   ar
    28    25    26   ar
    29    26    27   ar
    30    27    28    1
    31    27    29   ar
    32    29    30   ar
    33     7     2   ar
    34    16    11   ar
    35    30    24   ar
    36    10     6   ar
    37    22    23    1
