@<TRIPOS>MOLECULE
*****
 30 34 0 0 0
SMALL
GASTEIGER

@<TRIPOS>ATOM
      1 C         137.3501  142.6941  156.2212 C.3     1  UNL1        0.0181
      2 C         137.8304  142.5120  157.6306 C.3     1  UNL1        0.0036
      3 C         138.5334  142.5340  158.9555 C.3     1  UNL1        0.0227
      4 C         139.6991  143.4716  158.8463 C.3     1  UNL1        0.0870
      5 C         139.7166  144.0292  157.4539 C.3     1  UNL1        0.0227
      6 C         138.5617  143.4362  156.7026 C.3     1  UNL1        0.0036
      7 N         140.6759  143.7949  159.9378 N.ar    1  UNL1       -0.3109
      8 C         142.1671  143.8680  159.7933 C.ar    1  UNL1        0.1785
      9 N         142.7457  144.2201  161.1317 N.ar    1  UNL1       -0.2216
     10 C         141.6121  144.3647  162.1033 C.ar    1  UNL1        0.1261
     11 C         141.5794  144.7017  163.5645 C.ar    1  UNL1        0.1591
     12 F         142.8587  144.9645  164.3024 F       1  UNL1       -0.2025
     13 C         140.2675  144.7759  164.2879 C.ar    1  UNL1        0.0313
     14 C         138.9883  144.5130  163.5501 C.ar    1  UNL1        0.0039
     15 C         139.0209  144.1761  162.0888 C.ar    1  UNL1        0.0189
     16 C         140.3328  144.1019  161.3654 C.ar    1  UNL1        0.0811
     17 C         136.3734  142.3709  155.1297 C.3     1  UNL1        0.0718
     18 N         134.9711  141.9650  155.4741 N.am    1  UNL1       -0.3025
     19 C         134.6406  140.5178  155.6896 C.2     1  UNL1        0.2458
     20 O         135.7125  139.4765  155.5606 O.2     1  UNL1       -0.2701
     21 H         134.2675  142.6485  155.5588 H       1  UNL1        0.1497
     22 C         133.2381  140.1119  156.0340 C.ar    1  UNL1        0.0534
     23 C         132.9712  138.7548  156.6141 C.ar    1  UNL1        0.0054
     24 C         131.5688  138.3489  156.9586 C.ar    1  UNL1        0.0115
     25 C         130.4334  139.3003  156.7228 C.ar    1  UNL1        0.0577
     26 CL        129.0310  138.8944  157.0672 Cl      1  UNL1       -0.0822
     27 C         130.7003  140.6576  156.1426 C.ar    1  UNL1        0.0115
     28 C         132.1027  141.0634  155.7982 C.ar    1  UNL1        0.0054
     29 C         136.4356  143.6542  152.8716 C.3     1  UNL1        0.0017
     30 C         136.7990  142.4534  153.6937 C.3     1  UNL1        0.0196
@<TRIPOS>BOND
     1    29    30    1
     2    30    17    1
     3    17    18    1
     4    18    19   am
     5    19    20    2
     6    19    22    1
     7    22    23   ar
     8    23    24   ar
     9    24    25   ar
    10    25    26    1
    11    25    27   ar
    12    27    28   ar
    13     1    17    1
    14     1     2    1
    15     2     3    1
    16     3     4    1
    17     4     7    1
    18     7     8   ar
    19     8     9   ar
    20     9    10   ar
    21    10    11   ar
    22    11    12    1
    23    11    13   ar
    24    13    14   ar
    25    14    15   ar
    26    15    16   ar
    27     4     5    1
    28     6     5    1
    29    28    22   ar
    30     6     1    1
    31     6     2    1
    32    16     7   ar
    33    16    10   ar
    34    18    21    1
@<TRIPOS>MOLECULE
*****
 30 34 0 0 0
SMALL
GASTEIGER

@<TRIPOS>ATOM
      1 C         143.6200  139.5188  161.9954 C.3     1  UNL1        0.0181
      2 C         143.1501  138.3431  161.1910 C.3     1  UNL1        0.0036
      3 C         142.7151  137.3620  160.1430 C.3     1  UNL1        0.0227
      4 C         142.7831  138.0466  158.8102 C.3     1  UNL1        0.0870
      5 C         143.2602  139.4510  159.0343 C.3     1  UNL1        0.0227
      6 C         143.4870  139.6342  160.5057 C.3     1  UNL1        0.0036
      7 N         142.4351  137.4345  157.4857 N.ar    1  UNL1       -0.3109
      8 C         141.6441  138.0893  156.3924 C.ar    1  UNL1        0.1785
      9 N         141.5372  137.1196  155.2530 N.ar    1  UNL1       -0.2216
     10 C         142.2622  135.8654  155.6422 C.ar    1  UNL1        0.1261
     11 C         142.4887  134.5713  154.9183 C.ar    1  UNL1        0.1591
     12 F         141.9338  134.3767  153.5384 F       1  UNL1       -0.2025
     13 C         143.2702  133.4719  155.5744 C.ar    1  UNL1        0.0313
     14 C         143.8252  133.6665  156.9543 C.ar    1  UNL1        0.0039
     15 C         143.5986  134.9606  157.6781 C.ar    1  UNL1        0.0189
     16 C         142.8172  136.0600  157.0221 C.ar    1  UNL1        0.0811
     17 C         143.9679  140.1309  163.3198 C.3     1  UNL1        0.0718
     18 N         142.9067  140.3121  164.3643 N.am    1  UNL1       -0.3025
     19 C         142.9370  139.4853  165.6155 C.2     1  UNL1        0.2458
     20 O         144.0284  138.4773  165.8222 O.2     1  UNL1       -0.2701
     21 H         142.1904  140.9736  164.2286 H       1  UNL1        0.1497
     22 C         141.8757  139.6665  166.6600 C.ar    1  UNL1        0.0534
     23 C         142.2549  139.7413  168.1093 C.ar    1  UNL1        0.0054
     24 C         141.1937  139.9225  169.1538 C.ar    1  UNL1        0.0115
     25 C         139.7533  140.0288  168.7490 C.ar    1  UNL1        0.0577
     26 CL        138.6921  140.2100  169.7935 Cl      1  UNL1       -0.0822
     27 C         139.3741  139.9540  167.2996 C.ar    1  UNL1        0.0115
     28 C         140.4352  139.7728  166.2551 C.ar    1  UNL1        0.0054
     29 C         145.6845  142.0100  163.8419 C.3     1  UNL1        0.0017
     30 C         145.3772  140.5620  163.5998 C.3     1  UNL1        0.0196
@<TRIPOS>BOND
     1    29    30    1
     2    30    17    1
     3    17    18    1
     4    18    19   am
     5    19    20    2
     6    19    22    1
     7    22    23   ar
     8    23    24   ar
     9    24    25   ar
    10    25    26    1
    11    25    27   ar
    12    27    28   ar
    13     1    17    1
    14     1     2    1
    15     2     3    1
    16     3     4    1
    17     4     7    1
    18     7     8   ar
    19     8     9   ar
    20     9    10   ar
    21    10    11   ar
    22    11    12    1
    23    11    13   ar
    24    13    14   ar
    25    14    15   ar
    26    15    16   ar
    27     4     5    1
    28     6     5    1
    29    28    22   ar
    30     6     1    1
    31     6     2    1
    32    16     7   ar
    33    16    10   ar
    34    18    21    1
@<TRIPOS>MOLECULE
*****
 30 34 0 0 0
SMALL
GASTEIGER

@<TRIPOS>ATOM
      1 C         140.3099  145.0904  158.5322 C.3     1  UNL1        0.0181
      2 C         140.1079  144.1283  159.6653 C.3     1  UNL1        0.0036
      3 C         139.9208  143.4242  160.9764 C.3     1  UNL1        0.0227
      4 C         139.9497  144.4557  162.0650 C.3     1  UNL1        0.0870
      5 C         140.1547  145.7975  161.4266 C.3     1  UNL1        0.0227
      6 C         140.2525  145.5952  159.9436 C.3     1  UNL1        0.0036
      7 N         139.8000  144.1919  163.5340 N.ar    1  UNL1       -0.3109
      8 C         138.6913  144.6930  164.4112 C.ar    1  UNL1        0.1785
      9 N         138.9388  144.1914  165.8030 N.ar    1  UNL1       -0.2216
     10 C         140.2004  143.3802  165.7860 C.ar    1  UNL1        0.1261
     11 C         140.9333  142.6414  166.8662 C.ar    1  UNL1        0.1591
     12 F         140.4010  142.6411  168.2686 F       1  UNL1       -0.2025
     13 C         142.1984  141.9028  166.5440 C.ar    1  UNL1        0.0313
     14 C         142.7307  141.9031  165.1416 C.ar    1  UNL1        0.0039
     15 C         141.9978  142.6419  164.0614 C.ar    1  UNL1        0.0189
     16 C         140.7327  143.3805  164.3836 C.ar    1  UNL1        0.0811
     17 C         140.4596  145.3542  157.0633 C.3     1  UNL1        0.0718
     18 N         140.3982  146.7600  156.5437 N.am    1  UNL1       -0.3025
     19 C         139.2469  147.1925  155.6849 C.2     1  UNL1        0.2458
     20 O         138.1571  146.2193  155.3458 O.2     1  UNL1       -0.2701
     21 H         141.1135  147.3988  156.7663 H       1  UNL1        0.1497
     22 C         139.1855  148.5984  155.1653 C.ar    1  UNL1        0.0534
     23 C         138.5597  149.6786  155.9967 C.ar    1  UNL1        0.0054
     24 C         138.4983  151.0844  155.4772 C.ar    1  UNL1        0.0115
     25 C         139.0626  151.4099  154.1261 C.ar    1  UNL1        0.0577
     26 CL        139.0012  152.8157  153.6065 Cl      1  UNL1       -0.0822
     27 C         139.6884  150.3297  153.2945 C.ar    1  UNL1        0.0115
     28 C         139.7499  148.9239  153.8141 C.ar    1  UNL1        0.0054
     29 C         139.7249  143.0483  156.1183 C.3     1  UNL1        0.0017
     30 C         140.6709  144.2123  156.1138 C.3     1  UNL1        0.0196
@<TRIPOS>BOND
     1    29    30    1
     2    30    17    1
     3    17    18    1
     4    18    19   am
     5    19    20    2
     6    19    22    1
     7    22    23   ar
     8    23    24   ar
     9    24    25   ar
    10    25    26    1
    11    25    27   ar
    12    27    28   ar
    13     1    17    1
    14     1     2    1
    15     2     3    1
    16     3     4    1
    17     4     7    1
    18     7     8   ar
    19     8     9   ar
    20     9    10   ar
    21    10    11   ar
    22    11    12    1
    23    11    13   ar
    24    13    14   ar
    25    14    15   ar
    26    15    16   ar
    27     4     5    1
    28     6     5    1
    29    28    22   ar
    30     6     1    1
    31     6     2    1
    32    16     7   ar
    33    16    10   ar
    34    18    21    1
@<TRIPOS>MOLECULE
*****
 30 34 0 0 0
SMALL
GASTEIGER

@<TRIPOS>ATOM
      1 C         140.1298  138.1700  157.0480 C.3     1  UNL1        0.0181
      2 C         139.9868  138.3750  158.5270 C.3     1  UNL1        0.0036
      3 C         139.6821  138.8353  159.9218 C.3     1  UNL1        0.0227
      4 C         138.8793  140.0988  159.8281 C.3     1  UNL1        0.0870
      5 C         138.6877  140.4196  158.3754 C.3     1  UNL1        0.0227
      6 C         139.3722  139.3542  157.5713 C.3     1  UNL1        0.0036
      7 N         138.3592  140.9008  160.9841 N.ar    1  UNL1       -0.3109
      8 C         137.3638  140.4338  162.0043 C.ar    1  UNL1        0.1785
      9 N         137.1327  141.5551  162.9735 N.ar    1  UNL1       -0.2216
     10 C         137.9854  142.7151  162.5523 C.ar    1  UNL1        0.1261
     11 C         138.1695  144.0872  163.1295 C.ar    1  UNL1        0.1591
     12 F         137.4114  144.4916  164.3591 F       1  UNL1       -0.2025
     13 C         139.1116  145.0551  162.4771 C.ar    1  UNL1        0.0313
     14 C         139.8696  144.6507  161.2475 C.ar    1  UNL1        0.0039
     15 C         139.6855  143.2785  160.6703 C.ar    1  UNL1        0.0189
     16 C         138.7434  142.3107  161.3227 C.ar    1  UNL1        0.0811
     17 C         140.6498  137.3681  155.8920 C.3     1  UNL1        0.0718
     18 N         141.0684  135.9422  156.0963 N.am    1  UNL1       -0.3025
     19 C         142.4892  135.6217  156.4550 C.2     1  UNL1        0.2458
     20 O         143.4914  136.7270  156.6093 O.2     1  UNL1       -0.2701
     21 H         140.4106  135.2168  155.9950 H       1  UNL1        0.1497
     22 C         142.9078  134.1958  156.6593 C.ar    1  UNL1        0.0534
     23 C         142.1554  133.0889  155.9821 C.ar    1  UNL1        0.0054
     24 C         142.5740  131.6631  156.1864 C.ar    1  UNL1        0.0115
     25 C         143.7450  131.3441  157.0679 C.ar    1  UNL1        0.0577
     26 CL        144.1635  129.9183  157.2722 Cl      1  UNL1       -0.0822
     27 C         144.4974  132.4510  157.7451 C.ar    1  UNL1        0.0115
     28 C         144.0789  133.8769  157.5408 C.ar    1  UNL1        0.0054
     29 C         141.6685  139.1573  154.3074 C.3     1  UNL1        0.0017
     30 C         140.7513  137.9919  154.5316 C.3     1  UNL1        0.0196
@<TRIPOS>BOND
     1    29    30    1
     2    30    17    1
     3    17    18    1
     4    18    19   am
     5    19    20    2
     6    19    22    1
     7    22    23   ar
     8    23    24   ar
     9    24    25   ar
    10    25    26    1
    11    25    27   ar
    12    27    28   ar
    13     1    17    1
    14     1     2    1
    15     2     3    1
    16     3     4    1
    17     4     7    1
    18     7     8   ar
    19     8     9   ar
    20     9    10   ar
    21    10    11   ar
    22    11    12    1
    23    11    13   ar
    24    13    14   ar
    25    14    15   ar
    26    15    16   ar
    27     4     5    1
    28     6     5    1
    29    28    22   ar
    30     6     1    1
    31     6     2    1
    32    16     7   ar
    33    16    10   ar
    34    18    21    1
@<TRIPOS>MOLECULE
*****
 30 34 0 0 0
SMALL
GASTEIGER

@<TRIPOS>ATOM
      1 C         141.9761  138.3693  159.4444 C.3     1  UNL1        0.0181
      2 C         141.7898  138.0008  160.8865 C.3     1  UNL1        0.0036
      3 C         141.4192  137.8860  162.3355 C.3     1  UNL1        0.0227
      4 C         140.4988  139.0222  162.6700 C.3     1  UNL1        0.0870
      5 C         140.3005  139.8393  161.4278 C.3     1  UNL1        0.0227
      6 C         141.0984  139.2080  160.3256 C.3     1  UNL1        0.0036
      7 N         139.8845  139.2937  164.0113 N.ar    1  UNL1       -0.3109
      8 C         138.4188  139.4336  164.2976 C.ar    1  UNL1        0.1785
      9 N         138.2565  139.6993  165.7650 N.ar    1  UNL1       -0.2216
     10 C         139.6219  139.7235  166.3855 C.ar    1  UNL1        0.1261
     11 C         140.0791  139.9415  167.7974 C.ar    1  UNL1        0.1591
     12 F         139.0729  140.1922  168.8812 F       1  UNL1       -0.2025
     13 C         141.5424  139.9087  168.1254 C.ar    1  UNL1        0.0313
     14 C         142.5485  139.6580  167.0415 C.ar    1  UNL1        0.0039
     15 C         142.0914  139.4400  165.6296 C.ar    1  UNL1        0.0189
     16 C         140.6281  139.4728  165.3016 C.ar    1  UNL1        0.0811
     17 C         142.5904  138.0979  158.1033 C.3     1  UNL1        0.0718
     18 N         143.1938  136.7558  157.8125 N.am    1  UNL1       -0.3025
     19 C         142.5133  135.8179  156.8600 C.2     1  UNL1        0.2458
     20 O         141.2293  136.2221  156.1983 O.2     1  UNL1       -0.2701
     21 H         144.0366  136.4905  158.2468 H       1  UNL1        0.1497
     22 C         143.1168  134.4757  156.5693 C.ar    1  UNL1        0.0534
     23 C         142.8374  133.7950  155.2622 C.ar    1  UNL1        0.0054
     24 C         143.4409  132.4529  154.9715 C.ar    1  UNL1        0.0115
     25 C         144.3238  131.7915  155.9878 C.ar    1  UNL1        0.0577
     26 CL        144.9273  130.4494  155.6970 Cl      1  UNL1       -0.0822
     27 C         144.6033  132.4722  157.2949 C.ar    1  UNL1        0.0115
     28 C         143.9998  133.8143  157.5857 C.ar    1  UNL1        0.0054
     29 C         141.3140  139.7996  156.6116 C.3     1  UNL1        0.0017
     30 C         142.6012  139.1686  157.0527 C.3     1  UNL1        0.0196
@<TRIPOS>BOND
     1    29    30    1
     2    30    17    1
     3    17    18    1
     4    18    19   am
     5    19    20    2
     6    19    22    1
     7    22    23   ar
     8    23    24   ar
     9    24    25   ar
    10    25    26    1
    11    25    27   ar
    12    27    28   ar
    13     1    17    1
    14     1     2    1
    15     2     3    1
    16     3     4    1
    17     4     7    1
    18     7     8   ar
    19     8     9   ar
    20     9    10   ar
    21    10    11   ar
    22    11    12    1
    23    11    13   ar
    24    13    14   ar
    25    14    15   ar
    26    15    16   ar
    27     4     5    1
    28     6     5    1
    29    28    22   ar
    30     6     1    1
    31     6     2    1
    32    16     7   ar
    33    16    10   ar
    34    18    21    1
@<TRIPOS>MOLECULE
*****
 30 34 0 0 0
SMALL
GASTEIGER

@<TRIPOS>ATOM
      1 C         142.1294  137.5015  157.3553 C.3     1  UNL1        0.0181
      2 C         142.9824  136.4341  156.7362 C.3     1  UNL1        0.0036
      3 C         143.5695  135.2842  155.9725 C.3     1  UNL1        0.0227
      4 C         142.4766  134.6668  155.1514 C.3     1  UNL1        0.0870
      5 C         141.2140  135.4350  155.4076 C.3     1  UNL1        0.0227
      6 C         141.5266  136.5272  156.3870 C.3     1  UNL1        0.0036
      7 N         142.6209  133.4881  154.2350 N.ar    1  UNL1       -0.3109
      8 C         142.0171  133.3546  152.8684 C.ar    1  UNL1        0.1785
      9 N         142.4174  132.0199  152.3131 N.ar    1  UNL1       -0.2216
     10 C         143.2687  131.3285  153.3365 C.ar    1  UNL1        0.1261
     11 C         143.9455  129.9899  153.3402 C.ar    1  UNL1        0.1591
     12 F         143.8197  129.0826  152.1524 F       1  UNL1       -0.2025
     13 C         144.7482  129.5587  154.5318 C.ar    1  UNL1        0.0313
     14 C         144.8739  130.4661  155.7196 C.ar    1  UNL1        0.0039
     15 C         144.1971  131.8047  155.7158 C.ar    1  UNL1        0.0189
     16 C         143.3945  132.2359  154.5243 C.ar    1  UNL1        0.0811
     17 C         141.9851  138.6801  158.2716 C.3     1  UNL1        0.0718
     18 N         141.1654  138.5619  159.5223 N.am    1  UNL1       -0.3025
     19 C         141.7832  138.0153  160.7751 C.2     1  UNL1        0.2458
     20 O         143.2207  137.5869  160.7773 O.2     1  UNL1       -0.2701
     21 H         140.2219  138.8430  159.5208 H       1  UNL1        0.1497
     22 C         140.9634  137.8970  162.0258 C.ar    1  UNL1        0.0534
     23 C         139.4765  138.0852  161.9684 C.ar    1  UNL1        0.0054
     24 C         138.6567  137.9670  163.2191 C.ar    1  UNL1        0.0115
     25 C         139.3240  137.6605  164.5270 C.ar    1  UNL1        0.0577
     26 CL        138.5043  137.5423  165.7776 Cl      1  UNL1       -0.0822
     27 C         140.8111  137.4724  164.5844 C.ar    1  UNL1        0.0115
     28 C         141.6308  137.5906  163.3338 C.ar    1  UNL1        0.0054
     29 C         143.9596  140.3374  158.5948 C.3     1  UNL1        0.0017
     30 C         142.6605  139.9772  157.9375 C.3     1  UNL1        0.0196
@<TRIPOS>BOND
     1    29    30    1
     2    30    17    1
     3    17    18    1
     4    18    19   am
     5    19    20    2
     6    19    22    1
     7    22    23   ar
     8    23    24   ar
     9    24    25   ar
    10    25    26    1
    11    25    27   ar
    12    27    28   ar
    13     1    17    1
    14     1     2    1
    15     2     3    1
    16     3     4    1
    17     4     7    1
    18     7     8   ar
    19     8     9   ar
    20     9    10   ar
    21    10    11   ar
    22    11    12    1
    23    11    13   ar
    24    13    14   ar
    25    14    15   ar
    26    15    16   ar
    27     4     5    1
    28     6     5    1
    29    28    22   ar
    30     6     1    1
    31     6     2    1
    32    16     7   ar
    33    16    10   ar
    34    18    21    1
@<TRIPOS>MOLECULE
*****
 30 34 0 0 0
SMALL
GASTEIGER

@<TRIPOS>ATOM
      1 C         142.6041  138.1256  158.3478 C.3     1  UNL1        0.0181
      2 C         143.1748  139.4178  158.8524 C.3     1  UNL1        0.0036
      3 C         143.7168  140.5746  159.6386 C.3     1  UNL1        0.0227
      4 C         143.6986  140.1977  161.0903 C.3     1  UNL1        0.0870
      5 C         143.1454  138.8079  161.2015 C.3     1  UNL1        0.0227
      6 C         142.8217  138.3259  159.8184 C.3     1  UNL1        0.0036
      7 N         144.1537  141.0593  162.2308 N.ar    1  UNL1       -0.3109
      8 C         145.2176  140.7109  163.2291 C.ar    1  UNL1        0.1785
      9 N         145.3462  141.8568  164.1884 N.ar    1  UNL1       -0.2216
     10 C         144.3618  142.9135  163.7829 C.ar    1  UNL1        0.1261
     11 C         144.0413  144.2608  164.3591 C.ar    1  UNL1        0.1591
     12 F         144.7783  144.7537  165.5690 F       1  UNL1       -0.2025
     13 C         142.9838  145.1152  163.7254 C.ar    1  UNL1        0.0313
     14 C         142.2468  144.6223  162.5155 C.ar    1  UNL1        0.0039
     15 C         142.5672  143.2750  161.9393 C.ar    1  UNL1        0.0189
     16 C         143.6248  142.4206  162.5730 C.ar    1  UNL1        0.0811
     17 C         142.1490  137.2641  157.2074 C.3     1  UNL1        0.0718
     18 N         142.4501  135.7946  157.2109 N.am    1  UNL1       -0.3025
     19 C         143.5731  135.2572  156.3743 C.2     1  UNL1        0.2458
     20 O         144.3950  136.1891  155.5342 O.2     1  UNL1       -0.2701
     21 H         141.9106  135.1829  157.7623 H       1  UNL1        0.1497
     22 C         143.8742  133.7876  156.3778 C.ar    1  UNL1        0.0534
     23 C         143.5163  132.9459  155.1891 C.ar    1  UNL1        0.0054
     24 C         143.8174  131.4764  155.1926 C.ar    1  UNL1        0.0115
     25 C         144.4764  130.8487  156.3849 C.ar    1  UNL1        0.0577
     26 CL        144.7775  129.3793  156.3884 Cl      1  UNL1       -0.0822
     27 C         144.8343  131.6905  157.5737 C.ar    1  UNL1        0.0115
     28 C         144.5333  133.1599  157.5702 C.ar    1  UNL1        0.0054
     29 C         139.9906  137.4271  155.7706 C.3     1  UNL1        0.0017
     30 C         141.3927  137.8719  156.0634 C.3     1  UNL1        0.0196
@<TRIPOS>BOND
     1    29    30    1
     2    30    17    1
     3    17    18    1
     4    18    19   am
     5    19    20    2
     6    19    22    1
     7    22    23   ar
     8    23    24   ar
     9    24    25   ar
    10    25    26    1
    11    25    27   ar
    12    27    28   ar
    13     1    17    1
    14     1     2    1
    15     2     3    1
    16     3     4    1
    17     4     7    1
    18     7     8   ar
    19     8     9   ar
    20     9    10   ar
    21    10    11   ar
    22    11    12    1
    23    11    13   ar
    24    13    14   ar
    25    14    15   ar
    26    15    16   ar
    27     4     5    1
    28     6     5    1
    29    28    22   ar
    30     6     1    1
    31     6     2    1
    32    16     7   ar
    33    16    10   ar
    34    18    21    1
@<TRIPOS>MOLECULE
*****
 30 34 0 0 0
SMALL
GASTEIGER

@<TRIPOS>ATOM
      1 C         142.7712  137.5078  157.0827 C.3     1  UNL1        0.0181
      2 C         141.4213  137.8833  157.6185 C.3     1  UNL1        0.0036
      3 C         140.2243  138.2888  158.4265 C.3     1  UNL1        0.0227
      4 C         140.6730  138.5112  159.8403 C.3     1  UNL1        0.0870
      5 C         142.1474  138.2432  159.9063 C.3     1  UNL1        0.0227
      6 C         142.6099  137.8551  158.5331 C.3     1  UNL1        0.0036
      7 N         139.8007  138.9285  160.9870 N.ar    1  UNL1       -0.3109
      8 C         138.6381  139.8734  160.9120 C.ar    1  UNL1        0.1785
      9 N         138.0567  140.0029  162.2887 N.ar    1  UNL1       -0.2216
     10 C         138.8598  139.1380  163.2144 C.ar    1  UNL1        0.1261
     11 C         138.7489  138.8694  164.6859 C.ar    1  UNL1        0.1591
     12 F         137.6710  139.5334  165.4904 F       1  UNL1       -0.2025
     13 C         139.7158  137.9367  165.3530 C.ar    1  UNL1        0.0313
     14 C         140.7937  137.2726  164.5485 C.ar    1  UNL1        0.0039
     15 C         140.9046  137.5413  163.0769 C.ar    1  UNL1        0.0189
     16 C         139.9377  138.4740  162.4099 C.ar    1  UNL1        0.0811
     17 C         143.6436  137.0906  155.9362 C.3     1  UNL1        0.0718
     18 N         144.1124  135.6699  155.8287 N.am    1  UNL1       -0.3025
     19 C         143.1321  134.5781  155.5171 C.2     1  UNL1        0.2458
     20 O         141.6830  134.9071  155.3129 O.2     1  UNL1       -0.2701
     21 H         145.0636  135.4539  155.9627 H       1  UNL1        0.1497
     22 C         143.6011  133.1572  155.4097 C.ar    1  UNL1        0.0534
     23 C         144.5581  132.6046  156.4238 C.ar    1  UNL1        0.0054
     24 C         145.0270  131.1839  156.3163 C.ar    1  UNL1        0.0115
     25 C         144.5388  130.3157  155.1948 C.ar    1  UNL1        0.0577
     26 CL        145.0077  128.8950  155.0873 Cl      1  UNL1       -0.0822
     27 C         143.5817  130.8684  154.1806 C.ar    1  UNL1        0.0115
     28 C         143.1128  132.2891  154.2880 C.ar    1  UNL1        0.0054
     29 C         143.0909  139.1741  154.4858 C.3     1  UNL1        0.0017
     30 C         144.0472  138.0942  154.8969 C.3     1  UNL1        0.0196
@<TRIPOS>BOND
     1    29    30    1
     2    30    17    1
     3    17    18    1
     4    18    19   am
     5    19    20    2
     6    19    22    1
     7    22    23   ar
     8    23    24   ar
     9    24    25   ar
    10    25    26    1
    11    25    27   ar
    12    27    28   ar
    13     1    17    1
    14     1     2    1
    15     2     3    1
    16     3     4    1
    17     4     7    1
    18     7     8   ar
    19     8     9   ar
    20     9    10   ar
    21    10    11   ar
    22    11    12    1
    23    11    13   ar
    24    13    14   ar
    25    14    15   ar
    26    15    16   ar
    27     4     5    1
    28     6     5    1
    29    28    22   ar
    30     6     1    1
    31     6     2    1
    32    16     7   ar
    33    16    10   ar
    34    18    21    1
@<TRIPOS>MOLECULE
*****
 30 34 0 0 0
SMALL
GASTEIGER

@<TRIPOS>ATOM
      1 C         140.3594  138.1182  157.8185 C.3     1  UNL1        0.0181
      2 C         141.0665  138.8592  158.9144 C.3     1  UNL1        0.0036
      3 C         141.4952  139.5867  160.1542 C.3     1  UNL1        0.0227
      4 C         140.3117  139.6774  161.0712 C.3     1  UNL1        0.0870
      5 C         139.1514  139.0058  160.3983 C.3     1  UNL1        0.0227
      6 C         139.6179  138.5002  159.0653 C.3     1  UNL1        0.0036
      7 N         140.2918  140.3257  162.4237 N.ar    1  UNL1       -0.3109
      8 C         140.8213  141.6893  162.7557 C.ar    1  UNL1        0.1785
      9 N         140.5956  141.9305  164.2189 N.ar    1  UNL1       -0.2216
     10 C         139.9266  140.7160  164.7912 C.ar    1  UNL1        0.1261
     11 C         139.4642  140.3852  166.1792 C.ar    1  UNL1        0.1591
     12 F         139.6520  141.3771  167.2887 F       1  UNL1       -0.2025
     13 C         138.8140  139.0625  166.4577 C.ar    1  UNL1        0.0313
     14 C         138.6262  138.0706  165.3482 C.ar    1  UNL1        0.0039
     15 C         139.0886  138.4015  163.9602 C.ar    1  UNL1        0.0189
     16 C         139.7388  139.7242  163.6817 C.ar    1  UNL1        0.0811
     17 C         140.3793  137.4699  156.4661 C.3     1  UNL1        0.0718
     18 N         140.9902  136.1107  156.2948 N.am    1  UNL1       -0.3025
     19 C         142.4654  135.9215  156.4901 C.2     1  UNL1        0.2458
     20 O         143.3296  137.0914  156.8567 O.2     1  UNL1       -0.2701
     21 H         140.4230  135.3428  156.0541 H       1  UNL1        0.1497
     22 C         143.0763  134.5622  156.3188 C.ar    1  UNL1        0.0534
     23 C         142.8525  133.7938  155.0502 C.ar    1  UNL1        0.0054
     24 C         143.4634  132.4346  154.8789 C.ar    1  UNL1        0.0115
     25 C         144.2982  131.8439  155.9762 C.ar    1  UNL1        0.0577
     26 CL        144.9092  130.4847  155.8048 Cl      1  UNL1       -0.0822
     27 C         144.5221  132.6123  157.2448 C.ar    1  UNL1        0.0115
     28 C         143.9112  133.9714  157.4161 C.ar    1  UNL1        0.0054
     29 C         138.5319  137.6630  154.6495 C.3     1  UNL1        0.0017
     30 C         139.7881  138.1807  155.2848 C.3     1  UNL1        0.0196
@<TRIPOS>BOND
     1    29    30    1
     2    30    17    1
     3    17    18    1
     4    18    19   am
     5    19    20    2
     6    19    22    1
     7    22    23   ar
     8    23    24   ar
     9    24    25   ar
    10    25    26    1
    11    25    27   ar
    12    27    28   ar
    13     1    17    1
    14     1     2    1
    15     2     3    1
    16     3     4    1
    17     4     7    1
    18     7     8   ar
    19     8     9   ar
    20     9    10   ar
    21    10    11   ar
    22    11    12    1
    23    11    13   ar
    24    13    14   ar
    25    14    15   ar
    26    15    16   ar
    27     4     5    1
    28     6     5    1
    29    28    22   ar
    30     6     1    1
    31     6     2    1
    32    16     7   ar
    33    16    10   ar
    34    18    21    1
