@<TRIPOS>MOLECULE
*****
 21 23 0 0 0
SMALL
GASTEIGER

@<TRIPOS>ATOM
      1 C         138.7567  140.9451  165.1226 C.ar    1  UNL1        0.2553
      2 N         138.0136  139.7077  165.5307 N.ar    1  UNL1       -0.1751
      3 C         138.2398  139.1103  166.8878 C.ar    1  UNL1        0.2257
      4 O         137.4967  137.8728  167.2959 O.3     1  UNL1       -0.4919
      5 C         139.2090  139.7503  167.8370 C.ar    1  UNL1        0.0767
      6 C         139.9521  140.9878  167.4290 C.ar    1  UNL1        0.0891
      7 N         139.7260  141.5851  166.0718 N.ar    1  UNL1       -0.2098
      8 H         136.8912  137.4729  166.7030 H       1  UNL1        0.2938
      9 C         138.4379  141.5349  159.8851 C.3     1  UNL1        0.0540
     10 C         138.3840  141.8137  161.3580 C.ar    1  UNL1        0.0806
     11 C         137.9811  143.1102  161.9959 C.ar    1  UNL1        0.0313
     12 C         138.0717  142.9426  163.4837 C.ar    1  UNL1        0.0651
     13 C         137.7584  143.9910  164.5097 C.3     1  UNL1        0.0523
     14 N         138.5306  141.5425  163.7654 N.ar    1  UNL1       -0.2008
     15 N         138.7236  140.8448  162.4517 N.ar    1  UNL1       -0.1673
     16 C         140.9214  141.6278  168.3781 C.ar    1  UNL1        0.0179
     17 C         142.2879  141.0384  168.5654 C.ar    1  UNL1        0.0015
     18 C         143.2571  141.6785  169.5146 C.ar    1  UNL1        0.0000
     19 C         142.8599  142.9080  170.2764 C.ar    1  UNL1        0.0000
     20 C         141.4934  143.4974  170.0891 C.ar    1  UNL1        0.0000
     21 C         140.5241  142.8574  169.1399 C.ar    1  UNL1        0.0015
@<TRIPOS>BOND
     1     9    10    1
     2    10    11   ar
     3    11    12   ar
     4    12    13    1
     5    12    14   ar
     6    14     1    1
     7     1     2   ar
     8     2     3   ar
     9     3     4    1
    10     3     5   ar
    11     5     6   ar
    12     6    16    1
    13    16    17   ar
    14    17    18   ar
    15    18    19   ar
    16    19    20   ar
    17    20    21   ar
    18     6     7   ar
    19    14    15   ar
    20    15    10   ar
    21     7     1   ar
    22    21    16   ar
    23     4     8    1
@<TRIPOS>MOLECULE
*****
 21 23 0 0 0
SMALL
GASTEIGER

@<TRIPOS>ATOM
      1 C         139.5407  139.5492  164.9795 C.ar    1  UNL1        0.2553
      2 N         138.3971  138.7546  165.5368 N.ar    1  UNL1       -0.1751
      3 C         138.0973  138.8008  167.0058 C.ar    1  UNL1        0.2257
      4 O         136.9536  138.0062  167.5633 O.3     1  UNL1       -0.4919
      5 C         138.9412  139.6415  167.9174 C.ar    1  UNL1        0.0767
      6 C         140.0849  140.4360  167.3601 C.ar    1  UNL1        0.0891
      7 N         140.3846  140.3899  165.8911 N.ar    1  UNL1       -0.2098
      8 H         136.4265  137.4810  166.9938 H       1  UNL1        0.2938
      9 C         139.8444  140.8565  159.8726 C.3     1  UNL1        0.0540
     10 C         139.9801  140.1040  161.1631 C.ar    1  UNL1        0.0806
     11 C         140.6236  138.7601  161.3366 C.ar    1  UNL1        0.0313
     12 C         140.5374  138.3888  162.7873 C.ar    1  UNL1        0.0651
     13 C         141.0567  137.1250  163.4063 C.3     1  UNL1        0.0523
     14 N         139.8405  139.5031  163.5104 N.ar    1  UNL1       -0.2008
     15 N         139.4961  140.5631  162.5066 N.ar    1  UNL1       -0.1673
     16 C         140.9288  141.2768  168.2717 C.ar    1  UNL1        0.0179
     17 C         142.3525  140.8909  168.5435 C.ar    1  UNL1        0.0015
     18 C         143.1964  141.7317  169.4552 C.ar    1  UNL1        0.0000
     19 C         142.6166  142.9582  170.0949 C.ar    1  UNL1        0.0000
     20 C         141.1928  143.3440  169.8231 C.ar    1  UNL1        0.0000
     21 C         140.3489  142.5033  168.9114 C.ar    1  UNL1        0.0015
@<TRIPOS>BOND
     1     9    10    1
     2    10    11   ar
     3    11    12   ar
     4    12    13    1
     5    12    14   ar
     6    14     1    1
     7     1     2   ar
     8     2     3   ar
     9     3     4    1
    10     3     5   ar
    11     5     6   ar
    12     6    16    1
    13    16    17   ar
    14    17    18   ar
    15    18    19   ar
    16    19    20   ar
    17    20    21   ar
    18     6     7   ar
    19    14    15   ar
    20    15    10   ar
    21     7     1   ar
    22    21    16   ar
    23     4     8    1
@<TRIPOS>MOLECULE
*****
 21 23 0 0 0
SMALL
GASTEIGER

@<TRIPOS>ATOM
      1 C         139.8458  138.9732  164.9513 C.ar    1  UNL1        0.2553
      2 N         138.5807  138.3444  165.4554 N.ar    1  UNL1       -0.1751
      3 C         138.1093  138.6232  166.8518 C.ar    1  UNL1        0.2257
      4 O         136.8442  137.9944  167.3559 O.3     1  UNL1       -0.4919
      5 C         138.9029  139.5310  167.7440 C.ar    1  UNL1        0.0767
      6 C         140.1680  140.1598  167.2399 C.ar    1  UNL1        0.0891
      7 N         140.6394  139.8810  165.8436 N.ar    1  UNL1       -0.2098
      8 H         136.3484  137.4273  166.7986 H       1  UNL1        0.2938
      9 C         142.8886  137.6135  160.8557 C.3     1  UNL1        0.0540
     10 C         141.7158  138.0694  161.6723 C.ar    1  UNL1        0.0806
     11 C         140.3695  138.4612  161.1395 C.ar    1  UNL1        0.0313
     12 C         139.5051  138.8474  162.3030 C.ar    1  UNL1        0.0651
     13 C         138.0790  139.3062  162.2278 C.3     1  UNL1        0.0523
     14 N         140.3172  138.6944  163.5548 N.ar    1  UNL1       -0.2008
     15 N         141.6835  138.2135  163.1650 N.ar    1  UNL1       -0.1673
     16 C         140.9616  141.0676  168.1322 C.ar    1  UNL1        0.0179
     17 C         142.3754  140.7180  168.4912 C.ar    1  UNL1        0.0015
     18 C         143.1690  141.6257  169.3835 C.ar    1  UNL1        0.0000
     19 C         142.5489  142.8830  169.9168 C.ar    1  UNL1        0.0000
     20 C         141.1351  143.2327  169.5578 C.ar    1  UNL1        0.0000
     21 C         140.3414  142.3249  168.6655 C.ar    1  UNL1        0.0015
@<TRIPOS>BOND
     1     9    10    1
     2    10    11   ar
     3    11    12   ar
     4    12    13    1
     5    12    14   ar
     6    14     1    1
     7     1     2   ar
     8     2     3   ar
     9     3     4    1
    10     3     5   ar
    11     5     6   ar
    12     6    16    1
    13    16    17   ar
    14    17    18   ar
    15    18    19   ar
    16    19    20   ar
    17    20    21   ar
    18     6     7   ar
    19    14    15   ar
    20    15    10   ar
    21     7     1   ar
    22    21    16   ar
    23     4     8    1
@<TRIPOS>MOLECULE
*****
 21 23 0 0 0
SMALL
GASTEIGER

@<TRIPOS>ATOM
      1 C         141.6465  138.7939  164.9805 C.ar    1  UNL1        0.2553
      2 N         142.8883  138.0314  165.3363 N.ar    1  UNL1       -0.1751
      3 C         143.5198  138.2136  166.6845 C.ar    1  UNL1        0.2257
      4 O         144.7617  137.4511  167.0403 O.3     1  UNL1       -0.4919
      5 C         142.9097  139.1584  167.6771 C.ar    1  UNL1        0.0767
      6 C         141.6679  139.9209  167.3213 C.ar    1  UNL1        0.0891
      7 N         141.0364  139.7387  165.9731 N.ar    1  UNL1       -0.2098
      8 H         145.1428  136.8609  166.4204 H       1  UNL1        0.2938
      9 C         140.8582  138.8189  159.7595 C.3     1  UNL1        0.0540
     10 C         140.6525  138.6232  161.2324 C.ar    1  UNL1        0.0806
     11 C         139.4332  138.0393  161.8825 C.ar    1  UNL1        0.0313
     12 C         139.6572  138.0323  163.3656 C.ar    1  UNL1        0.0651
     13 C         138.6928  137.5333  164.4005 C.3     1  UNL1        0.0523
     14 N         141.0149  138.6117  163.6322 N.ar    1  UNL1       -0.2008
     15 N         141.6300  138.9769  162.3138 N.ar    1  UNL1       -0.1673
     16 C         141.0578  140.8657  168.3138 C.ar    1  UNL1        0.0179
     17 C         139.9134  140.4152  169.1725 C.ar    1  UNL1        0.0015
     18 C         139.3032  141.3600  170.1651 C.ar    1  UNL1        0.0000
     19 C         139.8374  142.7552  170.2989 C.ar    1  UNL1        0.0000
     20 C         140.9818  143.2057  169.4402 C.ar    1  UNL1        0.0000
     21 C         141.5920  142.2609  168.4477 C.ar    1  UNL1        0.0015
@<TRIPOS>BOND
     1     9    10    1
     2    10    11   ar
     3    11    12   ar
     4    12    13    1
     5    12    14   ar
     6    14     1    1
     7     1     2   ar
     8     2     3   ar
     9     3     4    1
    10     3     5   ar
    11     5     6   ar
    12     6    16    1
    13    16    17   ar
    14    17    18   ar
    15    18    19   ar
    16    19    20   ar
    17    20    21   ar
    18     6     7   ar
    19    14    15   ar
    20    15    10   ar
    21     7     1   ar
    22    21    16   ar
    23     4     8    1
@<TRIPOS>MOLECULE
*****
 21 23 0 0 0
SMALL
GASTEIGER

@<TRIPOS>ATOM
      1 C         140.4710  140.7978  164.3079 C.ar    1  UNL1        0.2553
      2 N         139.4149  141.7351  163.8018 N.ar    1  UNL1       -0.1751
      3 C         139.0201  142.9306  164.6172 C.ar    1  UNL1        0.2257
      4 O         137.9640  143.8680  164.1112 O.3     1  UNL1       -0.4919
      5 C         139.6813  143.1888  165.9386 C.ar    1  UNL1        0.0767
      6 C         140.7374  142.2515  166.4446 C.ar    1  UNL1        0.0891
      7 N         141.1322  141.0560  165.6293 N.ar    1  UNL1       -0.2098
      8 H         137.5509  143.7067  163.2857 H       1  UNL1        0.2938
      9 C         142.7435  137.7423  160.6499 C.3     1  UNL1        0.0540
     10 C         141.9104  138.1978  161.8112 C.ar    1  UNL1        0.0806
     11 C         141.0365  137.3271  162.6647 C.ar    1  UNL1        0.0313
     12 C         140.3910  138.1951  163.7038 C.ar    1  UNL1        0.0651
     13 C         139.4379  137.7366  164.7674 C.3     1  UNL1        0.0523
     14 N         140.8659  139.6022  163.4925 N.ar    1  UNL1       -0.2008
     15 N         141.8049  139.6038  162.3229 N.ar    1  UNL1       -0.1673
     16 C         141.3987  142.5097  167.7660 C.ar    1  UNL1        0.0179
     17 C         142.8331  142.1243  167.9749 C.ar    1  UNL1        0.0015
     18 C         143.4944  142.3825  169.2963 C.ar    1  UNL1        0.0000
     19 C         142.7212  143.0261  170.4088 C.ar    1  UNL1        0.0000
     20 C         141.2867  143.4116  170.1999 C.ar    1  UNL1        0.0000
     21 C         140.6254  143.1534  168.8786 C.ar    1  UNL1        0.0015
@<TRIPOS>BOND
     1     9    10    1
     2    10    11   ar
     3    11    12   ar
     4    12    13    1
     5    12    14   ar
     6    14     1    1
     7     1     2   ar
     8     2     3   ar
     9     3     4    1
    10     3     5   ar
    11     5     6   ar
    12     6    16    1
    13    16    17   ar
    14    17    18   ar
    15    18    19   ar
    16    19    20   ar
    17    20    21   ar
    18     6     7   ar
    19    14    15   ar
    20    15    10   ar
    21     7     1   ar
    22    21    16   ar
    23     4     8    1
@<TRIPOS>MOLECULE
*****
 21 23 0 0 0
SMALL
GASTEIGER

@<TRIPOS>ATOM
      1 C         141.5631  140.4099  164.1718 C.ar    1  UNL1        0.2553
      2 N         142.8875  140.6645  163.5154 N.ar    1  UNL1       -0.1751
      3 C         143.9404  141.4560  164.2330 C.ar    1  UNL1        0.2257
      4 O         145.2649  141.7107  163.5765 O.3     1  UNL1       -0.4919
      5 C         143.6687  141.9930  165.6070 C.ar    1  UNL1        0.0767
      6 C         142.3443  141.7384  166.2634 C.ar    1  UNL1        0.0891
      7 N         141.2915  140.9469  165.5459 N.ar    1  UNL1       -0.2098
      8 H         145.4346  141.3753  162.7182 H       1  UNL1        0.2938
      9 C         137.5110  139.1214  161.0410 C.3     1  UNL1        0.0540
     10 C         138.6477  139.0261  162.0152 C.ar    1  UNL1        0.0806
     11 C         139.1322  137.7744  162.6850 C.ar    1  UNL1        0.0313
     12 C         140.2833  138.1404  163.5744 C.ar    1  UNL1        0.0651
     13 C         141.0694  137.1947  164.4331 C.3     1  UNL1        0.0523
     14 N         140.5101  139.6183  163.4543 N.ar    1  UNL1       -0.2008
     15 N         139.4993  140.1657  162.4907 N.ar    1  UNL1       -0.1673
     16 C         142.0727  142.2753  167.6374 C.ar    1  UNL1        0.0179
     17 C         143.1546  142.2597  168.6762 C.ar    1  UNL1        0.0015
     18 C         142.8830  142.7967  170.0502 C.ar    1  UNL1        0.0000
     19 C         141.5294  143.3492  170.3855 C.ar    1  UNL1        0.0000
     20 C         140.4475  143.3648  169.3467 C.ar    1  UNL1        0.0000
     21 C         140.7191  142.8279  167.9727 C.ar    1  UNL1        0.0015
@<TRIPOS>BOND
     1     9    10    1
     2    10    11   ar
     3    11    12   ar
     4    12    13    1
     5    12    14   ar
     6    14     1    1
     7     1     2   ar
     8     2     3   ar
     9     3     4    1
    10     3     5   ar
    11     5     6   ar
    12     6    16    1
    13    16    17   ar
    14    17    18   ar
    15    18    19   ar
    16    19    20   ar
    17    20    21   ar
    18     6     7   ar
    19    14    15   ar
    20    15    10   ar
    21     7     1   ar
    22    21    16   ar
    23     4     8    1
@<TRIPOS>MOLECULE
*****
 21 23 0 0 0
SMALL
GASTEIGER

@<TRIPOS>ATOM
      1 C         140.9288  141.9266  163.9734 C.ar    1  UNL1        0.2553
      2 N         141.9834  142.7378  163.2808 N.ar    1  UNL1       -0.1751
      3 C         143.2538  143.0857  163.9983 C.ar    1  UNL1        0.2257
      4 O         144.3084  143.8970  163.3057 O.3     1  UNL1       -0.4919
      5 C         143.4697  142.6223  165.4085 C.ar    1  UNL1        0.0767
      6 C         142.4152  141.8110  166.1012 C.ar    1  UNL1        0.0891
      7 N         141.1447  141.4632  165.3836 N.ar    1  UNL1       -0.2098
      8 H         144.1736  144.1864  162.4248 H       1  UNL1        0.2938
      9 C         137.4905  139.6937  160.6458 C.3     1  UNL1        0.0540
     10 C         138.0779  140.5524  161.7263 C.ar    1  UNL1        0.0806
     11 C         137.3285  141.5345  162.5772 C.ar    1  UNL1        0.0313
     12 C         138.3052  142.1688  163.5225 C.ar    1  UNL1        0.0651
     13 C         137.9851  143.2103  164.5533 C.3     1  UNL1        0.0523
     14 N         139.6583  141.5787  163.2559 N.ar    1  UNL1       -0.2008
     15 N         139.5178  140.5797  162.1458 N.ar    1  UNL1       -0.1673
     16 C         142.6311  141.3476  167.5114 C.ar    1  UNL1        0.0179
     17 C         143.2381  142.2759  168.5212 C.ar    1  UNL1        0.0015
     18 C         143.4540  141.8125  169.9314 C.ar    1  UNL1        0.0000
     19 C         143.0629  140.4208  170.3317 C.ar    1  UNL1        0.0000
     20 C         142.4560  139.4926  169.3219 C.ar    1  UNL1        0.0000
     21 C         142.2401  139.9560  167.9117 C.ar    1  UNL1        0.0015
@<TRIPOS>BOND
     1     9    10    1
     2    10    11   ar
     3    11    12   ar
     4    12    13    1
     5    12    14   ar
     6    14     1    1
     7     1     2   ar
     8     2     3   ar
     9     3     4    1
    10     3     5   ar
    11     5     6   ar
    12     6    16    1
    13    16    17   ar
    14    17    18   ar
    15    18    19   ar
    16    19    20   ar
    17    20    21   ar
    18     6     7   ar
    19    14    15   ar
    20    15    10   ar
    21     7     1   ar
    22    21    16   ar
    23     4     8    1
@<TRIPOS>MOLECULE
*****
 21 23 0 0 0
SMALL
GASTEIGER

@<TRIPOS>ATOM
      1 C         141.6610  140.6933  163.3027 C.ar    1  UNL1        0.2553
      2 N         141.5855  139.3488  162.6420 N.ar    1  UNL1       -0.1751
      3 C         141.4209  138.1121  163.4747 C.ar    1  UNL1        0.2257
      4 O         141.3454  136.7675  162.8140 O.3     1  UNL1       -0.4919
      5 C         141.3318  138.2200  164.9682 C.ar    1  UNL1        0.0767
      6 C         141.4073  139.5645  165.6289 C.ar    1  UNL1        0.0891
      7 N         141.5718  140.8011  164.7961 N.ar    1  UNL1       -0.2098
      8 H         141.4011  136.7001  161.8811 H       1  UNL1        0.2938
      9 C         140.6661  145.2507  160.8284 C.3     1  UNL1        0.0540
     10 C         141.3683  144.0248  161.3326 C.ar    1  UNL1        0.0806
     11 C         142.7896  143.6415  161.0442 C.ar    1  UNL1        0.0313
     12 C         143.0721  142.3468  161.7471 C.ar    1  UNL1        0.0651
     13 C         144.3729  141.6001  161.7302 C.3     1  UNL1        0.0523
     14 N         141.8256  141.9300  162.4699 N.ar    1  UNL1       -0.2008
     15 N         140.7725  142.9671  162.2137 N.ar    1  UNL1       -0.1673
     16 C         141.3181  139.6723  167.1223 C.ar    1  UNL1        0.0179
     17 C         142.5149  139.3568  167.9698 C.ar    1  UNL1        0.0015
     18 C         142.4258  139.4647  169.4633 C.ar    1  UNL1        0.0000
     19 C         141.1399  139.8880  170.1093 C.ar    1  UNL1        0.0000
     20 C         139.9432  140.2035  169.2618 C.ar    1  UNL1        0.0000
     21 C         140.0323  140.0956  167.7683 C.ar    1  UNL1        0.0015
@<TRIPOS>BOND
     1     9    10    1
     2    10    11   ar
     3    11    12   ar
     4    12    13    1
     5    12    14   ar
     6    14     1    1
     7     1     2   ar
     8     2     3   ar
     9     3     4    1
    10     3     5   ar
    11     5     6   ar
    12     6    16    1
    13    16    17   ar
    14    17    18   ar
    15    18    19   ar
    16    19    20   ar
    17    20    21   ar
    18     6     7   ar
    19    14    15   ar
    20    15    10   ar
    21     7     1   ar
    22    21    16   ar
    23     4     8    1
@<TRIPOS>MOLECULE
*****
 21 23 0 0 0
SMALL
GASTEIGER

@<TRIPOS>ATOM
      1 C         142.8090  139.8602  164.7368 C.ar    1  UNL1        0.2553
      2 N         143.6646  138.7043  165.1630 N.ar    1  UNL1       -0.1751
      3 C         143.7186  138.3036  166.6075 C.ar    1  UNL1        0.2257
      4 O         144.5742  137.1477  167.0338 O.3     1  UNL1       -0.4919
      5 C         142.9169  139.0589  167.6258 C.ar    1  UNL1        0.0767
      6 C         142.0612  140.2148  167.1996 C.ar    1  UNL1        0.0891
      7 N         142.0073  140.6155  165.7551 N.ar    1  UNL1       -0.2098
      8 H         145.0750  136.6758  166.3977 H       1  UNL1        0.2938
      9 C         143.5099  142.5328  160.2371 C.3     1  UNL1        0.0540
     10 C         143.0772  141.4893  161.2241 C.ar    1  UNL1        0.0806
     11 C         142.2666  140.2656  160.9149 C.ar    1  UNL1        0.0313
     12 C         142.0675  139.5064  162.1931 C.ar    1  UNL1        0.0651
     13 C         141.3134  138.2188  162.3455 C.3     1  UNL1        0.0523
     14 N         142.7550  140.2609  163.2923 N.ar    1  UNL1       -0.2008
     15 N         143.3790  141.4864  162.6934 N.ar    1  UNL1       -0.1673
     16 C         141.2596  140.9701  168.2178 C.ar    1  UNL1        0.0179
     17 C         140.1275  140.2940  168.9328 C.ar    1  UNL1        0.0015
     18 C         139.3258  141.0493  169.9511 C.ar    1  UNL1        0.0000
     19 C         139.6562  142.4806  170.2544 C.ar    1  UNL1        0.0000
     20 C         140.7883  143.1567  169.5394 C.ar    1  UNL1        0.0000
     21 C         141.5900  142.4014  168.5211 C.ar    1  UNL1        0.0015
@<TRIPOS>BOND
     1     9    10    1
     2    10    11   ar
     3    11    12   ar
     4    12    13    1
     5    12    14   ar
     6    14     1    1
     7     1     2   ar
     8     2     3   ar
     9     3     4    1
    10     3     5   ar
    11     5     6   ar
    12     6    16    1
    13    16    17   ar
    14    17    18   ar
    15    18    19   ar
    16    19    20   ar
    17    20    21   ar
    18     6     7   ar
    19    14    15   ar
    20    15    10   ar
    21     7     1   ar
    22    21    16   ar
    23     4     8    1
