@<TRIPOS>MOLECULE
*****
 39 42 0 0 0
SMALL
GASTEIGER

@<TRIPOS>ATOM
      1 C         141.9696  138.7694  157.9358 C.3     1  UNL1        0.1038
      2 C         141.4331  137.7421  156.9835 C.3     1  UNL1        0.1000
      3 C         142.8885  137.3797  156.9646 C.3     1  UNL1        0.0332
      4 C         143.3665  136.2399  156.1149 C.3     1  UNL1        0.0735
      5 N         142.3891  135.4624  155.2840 N.3     1  UNL1       -0.2689
      6 C         140.9337  135.8248  155.3029 C.3     1  UNL1        0.0735
      7 C         140.4557  136.9647  156.1527 C.3     1  UNL1        0.0332
      8 C         140.1640  138.4613  157.3332 C.1     1  UNL1        0.0729
      9 N         138.8949  139.1806  157.6828 N.1     1  UNL1       -0.1959
     10 C         142.8672  134.3225  154.4342 C.3     1  UNL1        0.0991
     11 C         142.2931  132.9504  154.6279 C.ar    1  UNL1       -0.0022
     12 C         141.2030  132.4588  153.7223 C.ar    1  UNL1       -0.0030
     13 C         140.6289  131.0866  153.9161 C.ar    1  UNL1       -0.0003
     14 C         141.1448  130.2060  155.0153 C.ar    1  UNL1       -0.0001
     15 C         142.2349  130.6976  155.9208 C.ar    1  UNL1        0.0036
     16 C         142.8091  132.0697  155.7272 C.ar    1  UNL1        0.0688
     17 C         143.8992  132.5613  156.6327 C.3     1  UNL1        0.4183
     18 F         144.9893  133.0529  157.5383 F       1  UNL1       -0.1659
     19 F         142.8727  133.1949  157.5244 F       1  UNL1       -0.1659
     20 F         144.9256  131.9278  155.7410 F       1  UNL1       -0.1659
     21 C         142.7132  138.7769  160.4252 C.2     1  UNL1        0.2654
     22 O         144.1418  138.9399  159.9980 O.2     1  UNL1       -0.2684
     23 N         141.6271  138.6917  159.3941 N.am    1  UNL1       -0.2985
     24 H         140.6895  138.5847  159.6745 H       1  UNL1        0.1498
     25 C         142.5736  138.5575  164.2979 C.ar    1  UNL1        0.0622
     26 C         143.3505  138.6176  163.0163 C.ar    1  UNL1        0.0402
     27 C         142.3706  138.6992  161.8835 C.ar    1  UNL1        0.1555
     28 N         140.9880  138.6895  162.4651 N.ar    1  UNL1       -0.1608
     29 N         141.1134  138.6019  163.9573 N.ar    1  UNL1       -0.2336
     30 C         139.9781  138.5651  164.9368 C.ar    1  UNL1        0.0824
     31 C         139.6337  139.7894  165.7322 C.ar    1  UNL1        0.0191
     32 C         138.4983  139.7526  166.7117 C.ar    1  UNL1        0.0015
     33 C         137.7073  138.4916  166.8960 C.ar    1  UNL1        0.0001
     34 C         138.0516  137.2673  166.1007 C.ar    1  UNL1        0.0015
     35 C         139.1870  137.3040  165.1211 C.ar    1  UNL1        0.0191
     36 C         143.1547  138.4685  165.6780 C.3     1  UNL1        0.0459
     37 C         142.6872  139.3018  168.0939 C.3     1  UNL1        0.0004
     38 C         142.9588  139.5955  166.6483 C.3     1  UNL1        0.0059
     39 C         143.0345  141.0161  166.1729 C.3     1  UNL1        0.0004
@<TRIPOS>BOND
     1    37    38    1
     2    38    39    1
     3    38    36    1
     4    36    25    1
     5    25    26   ar
     6    26    27   ar
     7    27    21    1
     8    21    22    2
     9    21    23   am
    10    23     1    1
    11     1     2    1
    12     2     8    1
    13     8     9    3
    14     2     3    1
    15     3     4    1
    16     4     5    1
    17     5    10    1
    18    10    11    1
    19    11    12   ar
    20    12    13   ar
    21    13    14   ar
    22    14    15   ar
    23    15    16   ar
    24    16    17    1
    25    17    18    1
    26    17    19    1
    27    17    20    1
    28     5     6    1
    29     6     7    1
    30    27    28   ar
    31    28    29   ar
    32    29    30    1
    33    30    31   ar
    34    31    32   ar
    35    32    33   ar
    36    33    34   ar
    37    34    35   ar
    38    29    25   ar
    39    35    30   ar
    40     7     2    1
    41    16    11   ar
    42    23    24    1
@<TRIPOS>MOLECULE
*****
 39 42 0 0 0
SMALL
GASTEIGER

@<TRIPOS>ATOM
      1 C         142.1669  138.2403  157.8187 C.3     1  UNL1        0.1038
      2 C         141.5898  137.2459  156.8553 C.3     1  UNL1        0.1000
      3 C         143.0106  136.7674  156.9036 C.3     1  UNL1        0.0332
      4 C         143.4303  135.5806  156.0880 C.3     1  UNL1        0.0735
      5 N         142.4294  134.8724  155.2240 N.3     1  UNL1       -0.2689
      6 C         141.0086  135.3509  155.1757 C.3     1  UNL1        0.0735
      7 C         140.5888  136.5376  155.9914 C.3     1  UNL1        0.0332
      8 C         140.3694  138.0697  157.1416 C.1     1  UNL1        0.0729
      9 N         139.1490  138.8936  157.4280 N.1     1  UNL1       -0.1959
     10 C         142.8492  133.6855  154.4083 C.3     1  UNL1        0.0991
     11 C         142.2218  132.3457  154.6556 C.ar    1  UNL1       -0.0022
     12 C         140.9117  132.0007  154.0117 C.ar    1  UNL1       -0.0030
     13 C         140.2843  130.6608  154.2590 C.ar    1  UNL1       -0.0003
     14 C         140.9670  129.6660  155.1501 C.ar    1  UNL1       -0.0001
     15 C         142.2771  130.0110  155.7940 C.ar    1  UNL1        0.0036
     16 C         142.9045  131.3508  155.5467 C.ar    1  UNL1        0.0688
     17 C         144.2147  131.6958  156.1906 C.3     1  UNL1        0.4183
     18 F         145.5248  132.0408  156.8345 F       1  UNL1       -0.1659
     19 F         144.9434  130.9862  155.0881 F       1  UNL1       -0.1659
     20 F         143.4860  132.4054  157.2931 F       1  UNL1       -0.1659
     21 C         142.5338  138.5211  160.3754 C.2     1  UNL1        0.2654
     22 O         144.0164  138.5808  160.1560 O.2     1  UNL1       -0.2684
     23 N         141.6090  138.3508  159.2067 N.am    1  UNL1       -0.2985
     24 H         140.6358  138.3116  159.3506 H       1  UNL1        0.1498
     25 C         140.5404  138.3642  163.7022 C.ar    1  UNL1        0.0622
     26 C         140.7149  137.9888  162.2604 C.ar    1  UNL1        0.0402
     27 C         141.9758  138.6316  161.7633 C.ar    1  UNL1        0.1555
     28 N         142.5806  139.4043  162.8978 N.ar    1  UNL1       -0.1608
     29 N         141.6936  139.2390  164.0962 N.ar    1  UNL1       -0.2336
     30 C         141.9198  139.8426  165.4505 C.ar    1  UNL1        0.0824
     31 C         142.4692  139.0013  166.5643 C.ar    1  UNL1        0.0191
     32 C         142.6955  139.6049  167.9187 C.ar    1  UNL1        0.0015
     33 C         142.3724  141.0497  168.1594 C.ar    1  UNL1        0.0001
     34 C         141.8230  141.8910  167.0457 C.ar    1  UNL1        0.0015
     35 C         141.5967  141.2875  165.6913 C.ar    1  UNL1        0.0191
     36 C         139.4112  137.9394  164.5935 C.3     1  UNL1        0.0459
     37 C         138.0946  138.7603  166.6774 C.3     1  UNL1        0.0004
     38 C         138.5575  138.9730  165.2665 C.3     1  UNL1        0.0059
     39 C         138.1666  140.2190  164.5287 C.3     1  UNL1        0.0004
@<TRIPOS>BOND
     1    37    38    1
     2    38    39    1
     3    38    36    1
     4    36    25    1
     5    25    26   ar
     6    26    27   ar
     7    27    21    1
     8    21    22    2
     9    21    23   am
    10    23     1    1
    11     1     2    1
    12     2     8    1
    13     8     9    3
    14     2     3    1
    15     3     4    1
    16     4     5    1
    17     5    10    1
    18    10    11    1
    19    11    12   ar
    20    12    13   ar
    21    13    14   ar
    22    14    15   ar
    23    15    16   ar
    24    16    17    1
    25    17    18    1
    26    17    19    1
    27    17    20    1
    28     5     6    1
    29     6     7    1
    30    27    28   ar
    31    28    29   ar
    32    29    30    1
    33    30    31   ar
    34    31    32   ar
    35    32    33   ar
    36    33    34   ar
    37    34    35   ar
    38    29    25   ar
    39    35    30   ar
    40     7     2    1
    41    16    11   ar
    42    23    24    1
@<TRIPOS>MOLECULE
*****
 39 42 0 0 0
SMALL
GASTEIGER

@<TRIPOS>ATOM
      1 C         141.5680  145.3198  163.1436 C.3     1  UNL1        0.1038
      2 C         141.9229  144.1871  164.0606 C.3     1  UNL1        0.1000
      3 C         140.5237  144.4675  164.5226 C.3     1  UNL1        0.0332
      4 C         139.9226  143.6544  165.6305 C.3     1  UNL1        0.0735
      5 N         140.7207  142.5609  166.2764 N.3     1  UNL1       -0.2689
      6 C         142.1199  142.2805  165.8144 C.3     1  UNL1        0.0735
      7 C         142.7210  143.0936  164.7065 C.3     1  UNL1        0.0332
      8 C         143.1989  144.3001  163.2801 C.1     1  UNL1        0.0729
      9 N         144.4749  144.4129  162.4997 N.1     1  UNL1       -0.1959
     10 C         140.1195  141.7478  167.3844 C.3     1  UNL1        0.0991
     11 C         141.0061  141.1087  168.4118 C.ar    1  UNL1       -0.0022
     12 C         141.6719  139.7974  168.1165 C.ar    1  UNL1       -0.0030
     13 C         142.5584  139.1583  169.1440 C.ar    1  UNL1       -0.0003
     14 C         142.7791  139.8304  170.4666 C.ar    1  UNL1       -0.0001
     15 C         142.1133  141.1417  170.7619 C.ar    1  UNL1        0.0036
     16 C         141.2268  141.7809  169.7345 C.ar    1  UNL1        0.0688
     17 C         140.5610  143.0922  170.0297 C.3     1  UNL1        0.4183
     18 F         139.8952  144.4035  170.3250 F       1  UNL1       -0.1659
     19 F         141.8435  143.8105  169.7314 F       1  UNL1       -0.1659
     20 F         139.2785  142.3738  170.3281 F       1  UNL1       -0.1659
     21 C         140.1849  145.3023  160.9443 C.2     1  UNL1        0.2654
     22 O         138.9706  145.7468  161.7044 O.2     1  UNL1       -0.2684
     23 N         141.4836  145.0888  161.6639 N.am    1  UNL1       -0.2985
     24 H         142.2806  144.7970  161.1650 H       1  UNL1        0.1498
     25 C         139.6934  144.0297  157.3105 C.ar    1  UNL1        0.0622
     26 C         139.6021  143.8257  158.7937 C.ar    1  UNL1        0.0402
     27 C         140.1007  145.0713  159.4646 C.ar    1  UNL1        0.1555
     28 N         140.5002  146.0452  158.3960 N.ar    1  UNL1       -0.1608
     29 N         140.2485  145.4015  157.0646 N.ar    1  UNL1       -0.2336
     30 C         140.5066  146.0207  155.7231 C.ar    1  UNL1        0.0824
     31 C         139.7904  147.2779  155.3270 C.ar    1  UNL1        0.0191
     32 C         140.0485  147.8971  153.9854 C.ar    1  UNL1        0.0015
     33 C         141.0227  147.2592  153.0399 C.ar    1  UNL1        0.0001
     34 C         141.7388  146.0022  153.4359 C.ar    1  UNL1        0.0015
     35 C         141.4808  145.3829  154.7775 C.ar    1  UNL1        0.0191
     36 C         139.2990  143.0365  156.2579 C.3     1  UNL1        0.0459
     37 C         137.6480  144.0602  154.5328 C.3     1  UNL1        0.0004
     38 C         137.9307  143.0956  155.6461 C.3     1  UNL1        0.0059
     39 C         136.8452  142.1901  156.1478 C.3     1  UNL1        0.0004
@<TRIPOS>BOND
     1    37    38    1
     2    38    39    1
     3    38    36    1
     4    36    25    1
     5    25    26   ar
     6    26    27   ar
     7    27    21    1
     8    21    22    2
     9    21    23   am
    10    23     1    1
    11     1     2    1
    12     2     8    1
    13     8     9    3
    14     2     3    1
    15     3     4    1
    16     4     5    1
    17     5    10    1
    18    10    11    1
    19    11    12   ar
    20    12    13   ar
    21    13    14   ar
    22    14    15   ar
    23    15    16   ar
    24    16    17    1
    25    17    18    1
    26    17    19    1
    27    17    20    1
    28     5     6    1
    29     6     7    1
    30    27    28   ar
    31    28    29   ar
    32    29    30    1
    33    30    31   ar
    34    31    32   ar
    35    32    33   ar
    36    33    34   ar
    37    34    35   ar
    38    29    25   ar
    39    35    30   ar
    40     7     2    1
    41    16    11   ar
    42    23    24    1
@<TRIPOS>MOLECULE
*****
 39 42 0 0 0
SMALL
GASTEIGER

@<TRIPOS>ATOM
      1 C         140.0665  138.6347  157.8561 C.3     1  UNL1        0.1038
      2 C         141.3521  137.9863  157.4357 C.3     1  UNL1        0.1000
      3 C         140.3832  137.2183  156.5864 C.3     1  UNL1        0.0332
      4 C         140.8813  136.1469  155.6624 C.3     1  UNL1        0.0735
      5 N         142.3484  135.8434  155.5877 N.3     1  UNL1       -0.2689
      6 C         143.3173  136.6114  156.4370 C.3     1  UNL1        0.0735
      7 C         142.8192  137.6828  157.3610 C.3     1  UNL1        0.0332
      8 C         141.8746  138.9795  158.4310 C.1     1  UNL1        0.0729
      9 N         142.3970  139.9727  159.4264 N.1     1  UNL1       -0.1959
     10 C         142.8465  134.7719  154.6637 C.3     1  UNL1        0.0991
     11 C         142.3118  133.3751  154.7777 C.ar    1  UNL1       -0.0022
     12 C         141.2443  132.9015  153.8363 C.ar    1  UNL1       -0.0030
     13 C         140.7096  131.5046  153.9503 C.ar    1  UNL1       -0.0003
     14 C         141.2424  130.5814  155.0057 C.ar    1  UNL1       -0.0001
     15 C         142.3099  131.0550  155.9470 C.ar    1  UNL1        0.0036
     16 C         142.8446  132.4518  155.8331 C.ar    1  UNL1        0.0688
     17 C         143.9121  132.9254  156.7744 C.3     1  UNL1        0.4183
     18 F         144.9795  133.3990  157.7158 F       1  UNL1       -0.1659
     19 F         142.8601  133.4833  157.6866 F       1  UNL1       -0.1659
     20 F         144.9640  132.3675  155.8622 F       1  UNL1       -0.1659
     21 C         138.6954  139.9629  159.6185 C.2     1  UNL1        0.2654
     22 O         137.6080  140.1805  158.6086 O.2     1  UNL1       -0.2684
     23 N         139.9247  139.1901  159.2423 N.am    1  UNL1       -0.2985
     24 H         140.6385  139.0473  159.9052 H       1  UNL1        0.1498
     25 C         138.0243  141.9947  162.8569 C.ar    1  UNL1        0.0622
     26 C         137.9667  141.8508  161.3650 C.ar    1  UNL1        0.0402
     27 C         138.5537  140.5182  161.0047 C.ar    1  UNL1        0.1555
     28 N         138.9742  139.8385  162.2741 N.ar    1  UNL1       -0.1608
     29 N         138.6470  140.7510  163.4188 N.ar    1  UNL1       -0.2336
     30 C         138.8984  140.4693  164.8705 C.ar    1  UNL1        0.0824
     31 C         138.1063  139.4093  165.5770 C.ar    1  UNL1        0.0191
     32 C         138.3576  139.1277  167.0287 C.ar    1  UNL1        0.0015
     33 C         139.4011  139.9060  167.7739 C.ar    1  UNL1        0.0001
     34 C         140.1932  140.9659  167.0675 C.ar    1  UNL1        0.0015
     35 C         139.9418  141.2476  165.6158 C.ar    1  UNL1        0.0191
     36 C         137.5436  143.1749  163.6481 C.3     1  UNL1        0.0459
     37 C         138.6802  144.7679  165.3571 C.3     1  UNL1        0.0004
     38 C         138.4778  144.3109  163.9428 C.3     1  UNL1        0.0059
     39 C         139.2095  144.9900  162.8233 C.3     1  UNL1        0.0004
@<TRIPOS>BOND
     1    37    38    1
     2    38    39    1
     3    38    36    1
     4    36    25    1
     5    25    26   ar
     6    26    27   ar
     7    27    21    1
     8    21    22    2
     9    21    23   am
    10    23     1    1
    11     1     2    1
    12     2     8    1
    13     8     9    3
    14     2     3    1
    15     3     4    1
    16     4     5    1
    17     5    10    1
    18    10    11    1
    19    11    12   ar
    20    12    13   ar
    21    13    14   ar
    22    14    15   ar
    23    15    16   ar
    24    16    17    1
    25    17    18    1
    26    17    19    1
    27    17    20    1
    28     5     6    1
    29     6     7    1
    30    27    28   ar
    31    28    29   ar
    32    29    30    1
    33    30    31   ar
    34    31    32   ar
    35    32    33   ar
    36    33    34   ar
    37    34    35   ar
    38    29    25   ar
    39    35    30   ar
    40     7     2    1
    41    16    11   ar
    42    23    24    1
@<TRIPOS>MOLECULE
*****
 39 42 0 0 0
SMALL
GASTEIGER

@<TRIPOS>ATOM
      1 C         140.8164  145.8957  162.6849 C.3     1  UNL1        0.1038
      2 C         140.8166  144.6597  163.5346 C.3     1  UNL1        0.1000
      3 C         139.3981  144.6405  163.0475 C.3     1  UNL1        0.0332
      4 C         138.4725  143.5410  163.4768 C.3     1  UNL1        0.0735
      5 N         138.9655  142.4606  164.3933 N.3     1  UNL1       -0.2689
      6 C         140.3840  142.4798  164.8804 C.3     1  UNL1        0.0735
      7 C         141.3096  143.5793  164.4511 C.3     1  UNL1        0.0332
      8 C         142.2351  145.1081  163.7267 C.1     1  UNL1        0.0729
      9 N         143.6536  145.5567  163.9187 N.1     1  UNL1       -0.1959
     10 C         138.0398  141.3611  164.8226 C.3     1  UNL1        0.0991
     11 C         138.3217  139.9437  164.4208 C.ar    1  UNL1       -0.0022
     12 C         138.2697  139.5497  162.9744 C.ar    1  UNL1       -0.0030
     13 C         138.5516  138.1322  162.5726 C.ar    1  UNL1       -0.0003
     14 C         138.8856  137.1088  163.6172 C.ar    1  UNL1       -0.0001
     15 C         138.9377  137.5029  165.0636 C.ar    1  UNL1        0.0036
     16 C         138.6558  138.9203  165.4654 C.ar    1  UNL1        0.0688
     17 C         138.7078  139.3144  166.9117 C.3     1  UNL1        0.4183
     18 F         138.7599  139.7084  168.3581 F       1  UNL1       -0.1659
     19 F         140.1456  139.7111  166.7519 F       1  UNL1       -0.1659
     20 F         137.2701  138.9176  167.0716 F       1  UNL1       -0.1659
     21 C         141.2609  145.1477  160.2368 C.2     1  UNL1        0.2654
     22 O         142.5714  144.5513  160.6571 O.2     1  UNL1       -0.2684
     23 N         140.3833  145.8200  161.2508 N.am    1  UNL1       -0.2985
     24 H         139.5232  146.2115  160.9750 H       1  UNL1        0.1498
     25 C         140.6365  145.5097  156.4231 C.ar    1  UNL1        0.0622
     26 C         141.3421  145.9239  157.6803 C.ar    1  UNL1        0.0402
     27 C         140.8278  145.0721  158.8028 C.ar    1  UNL1        0.1555
     28 N         139.8043  144.1313  158.2393 N.ar    1  UNL1       -0.1608
     29 N         139.6861  144.4017  156.7685 N.ar    1  UNL1       -0.2336
     30 C         138.7771  143.6894  155.8114 C.ar    1  UNL1        0.0824
     31 C         137.5532  144.3788  155.2851 C.ar    1  UNL1        0.0191
     32 C         136.6443  143.6664  154.3280 C.ar    1  UNL1        0.0015
     33 C         136.9591  142.2646  153.8970 C.ar    1  UNL1        0.0001
     34 C         138.1829  141.5751  154.4232 C.ar    1  UNL1        0.0015
     35 C         139.0919  142.2875  155.3804 C.ar    1  UNL1        0.0191
     36 C         140.8447  146.0997  155.0598 C.3     1  UNL1        0.0459
     37 C         138.9455  147.8200  155.4879 C.3     1  UNL1        0.0004
     38 C         140.0916  147.3314  154.6526 C.3     1  UNL1        0.0059
     39 C         140.4847  148.0743  153.4104 C.3     1  UNL1        0.0004
@<TRIPOS>BOND
     1    37    38    1
     2    38    39    1
     3    38    36    1
     4    36    25    1
     5    25    26   ar
     6    26    27   ar
     7    27    21    1
     8    21    22    2
     9    21    23   am
    10    23     1    1
    11     1     2    1
    12     2     8    1
    13     8     9    3
    14     2     3    1
    15     3     4    1
    16     4     5    1
    17     5    10    1
    18    10    11    1
    19    11    12   ar
    20    12    13   ar
    21    13    14   ar
    22    14    15   ar
    23    15    16   ar
    24    16    17    1
    25    17    18    1
    26    17    19    1
    27    17    20    1
    28     5     6    1
    29     6     7    1
    30    27    28   ar
    31    28    29   ar
    32    29    30    1
    33    30    31   ar
    34    31    32   ar
    35    32    33   ar
    36    33    34   ar
    37    34    35   ar
    38    29    25   ar
    39    35    30   ar
    40     7     2    1
    41    16    11   ar
    42    23    24    1
@<TRIPOS>MOLECULE
*****
 39 42 0 0 0
SMALL
GASTEIGER

@<TRIPOS>ATOM
      1 C         140.8345  137.8758  156.9671 C.3     1  UNL1        0.1038
      2 C         141.9595  136.9754  156.5506 C.3     1  UNL1        0.1000
      3 C         140.8160  136.3053  155.8483 C.3     1  UNL1        0.0332
      4 C         141.0590  135.0761  155.0237 C.3     1  UNL1        0.0735
      5 N         142.4455  134.5170  154.9013 N.3     1  UNL1       -0.2689
      6 C         143.5890  135.1871  155.6036 C.3     1  UNL1        0.0735
      7 C         143.3460  136.4163  156.4282 C.3     1  UNL1        0.0332
      8 C         142.7123  137.9582  157.3975 C.1     1  UNL1        0.0729
      9 N         143.4651  138.9411  158.2445 N.1     1  UNL1       -0.1959
     10 C         142.6884  133.2878  154.0767 C.3     1  UNL1        0.0991
     11 C         142.0835  131.9779  154.4867 C.ar    1  UNL1       -0.0022
     12 C         140.7197  131.5945  153.9936 C.ar    1  UNL1       -0.0030
     13 C         140.1148  130.2845  154.4037 C.ar    1  UNL1       -0.0003
     14 C         140.8736  129.3580  155.3069 C.ar    1  UNL1       -0.0001
     15 C         142.2374  129.7414  155.8000 C.ar    1  UNL1        0.0036
     16 C         142.8423  131.0513  155.3899 C.ar    1  UNL1        0.0688
     17 C         144.2061  131.4347  155.8830 C.3     1  UNL1        0.4183
     18 F         145.5698  131.8180  156.3761 F       1  UNL1       -0.1659
     19 F         144.8285  130.6982  154.7340 F       1  UNL1       -0.1659
     20 F         143.5836  132.1711  157.0320 F       1  UNL1       -0.1659
     21 C         139.4988  139.0879  158.8371 C.2     1  UNL1        0.2654
     22 O         138.5086  139.5687  157.8183 O.2     1  UNL1       -0.2684
     23 N         140.6618  138.2414  158.4116 N.am    1  UNL1       -0.2985
     24 H         141.3118  137.9259  159.0803 H       1  UNL1        0.1498
     25 C         139.0000  139.2895  162.6811 C.ar    1  UNL1        0.0622
     26 C         139.1265  138.4930  161.4164 C.ar    1  UNL1        0.0402
     27 C         139.3263  139.4535  160.2816 C.ar    1  UNL1        0.1555
     28 N         139.3231  140.8437  160.8450 N.ar    1  UNL1       -0.1608
     29 N         139.1215  140.7424  162.3280 N.ar    1  UNL1       -0.2336
     30 C         139.0533  141.8919  163.2890 C.ar    1  UNL1        0.0824
     31 C         137.7600  142.6244  163.4917 C.ar    1  UNL1        0.0191
     32 C         137.6919  143.7740  164.4528 C.ar    1  UNL1        0.0015
     33 C         138.9169  144.1912  165.2112 C.ar    1  UNL1        0.0001
     34 C         140.2101  143.4588  165.0086 C.ar    1  UNL1        0.0015
     35 C         140.2783  142.3092  164.0475 C.ar    1  UNL1        0.0191
     36 C         138.7889  138.7313  164.0573 C.3     1  UNL1        0.0459
     37 C         140.9074  137.3346  164.6152 C.3     1  UNL1        0.0004
     38 C         139.9672  138.4563  164.9438 C.3     1  UNL1        0.0059
     39 C         140.2053  139.3028  166.1589 C.3     1  UNL1        0.0004
@<TRIPOS>BOND
     1    37    38    1
     2    38    39    1
     3    38    36    1
     4    36    25    1
     5    25    26   ar
     6    26    27   ar
     7    27    21    1
     8    21    22    2
     9    21    23   am
    10    23     1    1
    11     1     2    1
    12     2     8    1
    13     8     9    3
    14     2     3    1
    15     3     4    1
    16     4     5    1
    17     5    10    1
    18    10    11    1
    19    11    12   ar
    20    12    13   ar
    21    13    14   ar
    22    14    15   ar
    23    15    16   ar
    24    16    17    1
    25    17    18    1
    26    17    19    1
    27    17    20    1
    28     5     6    1
    29     6     7    1
    30    27    28   ar
    31    28    29   ar
    32    29    30    1
    33    30    31   ar
    34    31    32   ar
    35    32    33   ar
    36    33    34   ar
    37    34    35   ar
    38    29    25   ar
    39    35    30   ar
    40     7     2    1
    41    16    11   ar
    42    23    24    1
@<TRIPOS>MOLECULE
*****
 39 42 0 0 0
SMALL
GASTEIGER

@<TRIPOS>ATOM
      1 C         140.7904  139.8566  159.3706 C.3     1  UNL1        0.1038
      2 C         139.4887  140.0586  160.0880 C.3     1  UNL1        0.1000
      3 C         140.4368  140.1118  161.2491 C.3     1  UNL1        0.0332
      4 C         139.9109  140.3241  162.6377 C.3     1  UNL1        0.0735
      5 N         138.4369  140.4833  162.8653 N.3     1  UNL1       -0.2689
      6 C         137.4887  140.4301  161.7042 C.3     1  UNL1        0.0735
      7 C         138.0146  140.2178  160.3156 C.3     1  UNL1        0.0332
      8 C         138.9926  139.9353  158.6778 C.1     1  UNL1        0.0729
      9 N         138.4966  139.8120  157.2675 N.1     1  UNL1       -0.1959
     10 C         137.9110  140.6956  164.2540 C.3     1  UNL1        0.0991
     11 C         138.8614  140.9645  165.3829 C.ar    1  UNL1       -0.0022
     12 C         139.4650  142.3279  165.5465 C.ar    1  UNL1       -0.0030
     13 C         140.4154  142.5968  166.6755 C.ar    1  UNL1       -0.0003
     14 C         140.7621  141.5023  167.6407 C.ar    1  UNL1       -0.0001
     15 C         140.1585  140.1389  167.4771 C.ar    1  UNL1        0.0036
     16 C         139.2082  139.8700  166.3482 C.ar    1  UNL1        0.0688
     17 C         138.6046  138.5066  166.1846 C.3     1  UNL1        0.4183
     18 F         138.0010  137.1431  166.0210 F       1  UNL1       -0.1659
     19 F         137.4579  138.9087  167.0640 F       1  UNL1       -0.1659
     20 F         139.7513  138.1044  165.3052 F       1  UNL1       -0.1659
     21 C         142.4406  138.1637  158.2931 C.2     1  UNL1        0.2654
     22 O         143.5979  139.0044  158.7447 O.2     1  UNL1       -0.2684
     23 N         141.0368  138.5899  158.6061 N.am    1  UNL1       -0.2985
     24 H         140.2773  138.0381  158.3097 H       1  UNL1        0.1498
     25 C         142.9212  135.3071  155.7097 C.ar    1  UNL1        0.0622
     26 C         142.5975  136.7340  156.0401 C.ar    1  UNL1        0.0402
     27 C         142.6869  136.8970  157.5286 C.ar    1  UNL1        0.1555
     28 N         143.0659  135.5708  158.1182 N.ar    1  UNL1       -0.1608
     29 N         143.2108  134.5881  156.9941 N.ar    1  UNL1       -0.2336
     30 C         143.5802  133.1408  157.1303 C.ar    1  UNL1        0.0824
     31 C         142.6853  132.0813  156.5588 C.ar    1  UNL1        0.0191
     32 C         143.0547  130.6339  156.6951 C.ar    1  UNL1        0.0015
     33 C         144.3190  130.2460  157.4029 C.ar    1  UNL1        0.0001
     34 C         145.2139  131.3055  157.9744 C.ar    1  UNL1        0.0015
     35 C         144.8445  132.7529  157.8381 C.ar    1  UNL1        0.0191
     36 C         142.9503  134.7048  154.3363 C.3     1  UNL1        0.0459
     37 C         140.8074  135.5108  153.1083 C.3     1  UNL1        0.0004
     38 C         141.6660  134.3951  153.6258 C.3     1  UNL1        0.0059
     39 C         141.2405  132.9698  153.4329 C.3     1  UNL1        0.0004
@<TRIPOS>BOND
     1    37    38    1
     2    38    39    1
     3    38    36    1
     4    36    25    1
     5    25    26   ar
     6    26    27   ar
     7    27    21    1
     8    21    22    2
     9    21    23   am
    10    23     1    1
    11     1     2    1
    12     2     8    1
    13     8     9    3
    14     2     3    1
    15     3     4    1
    16     4     5    1
    17     5    10    1
    18    10    11    1
    19    11    12   ar
    20    12    13   ar
    21    13    14   ar
    22    14    15   ar
    23    15    16   ar
    24    16    17    1
    25    17    18    1
    26    17    19    1
    27    17    20    1
    28     5     6    1
    29     6     7    1
    30    27    28   ar
    31    28    29   ar
    32    29    30    1
    33    30    31   ar
    34    31    32   ar
    35    32    33   ar
    36    33    34   ar
    37    34    35   ar
    38    29    25   ar
    39    35    30   ar
    40     7     2    1
    41    16    11   ar
    42    23    24    1
@<TRIPOS>MOLECULE
*****
 39 42 0 0 0
SMALL
GASTEIGER

@<TRIPOS>ATOM
      1 C         141.6202  145.0647  163.1724 C.3     1  UNL1        0.1038
      2 C         142.3013  143.9683  163.9367 C.3     1  UNL1        0.1000
      3 C         140.8889  143.7715  164.4019 C.3     1  UNL1        0.0332
      4 C         140.5661  142.6790  165.3776 C.3     1  UNL1        0.0735
      5 N         141.6555  141.7832  165.8881 N.3     1  UNL1       -0.2689
      6 C         143.0679  141.9800  165.4229 C.3     1  UNL1        0.0735
      7 C         143.3908  143.0726  164.4472 C.3     1  UNL1        0.0332
      8 C         143.4771  144.5459  163.2061 C.1     1  UNL1        0.0729
      9 N         144.6531  145.1234  162.4755 N.1     1  UNL1       -0.1959
     10 C         141.3326  140.6906  166.8638 C.3     1  UNL1        0.0991
     11 C         140.2900  139.6667  166.5253 C.ar    1  UNL1       -0.0022
     12 C         138.9955  139.6358  167.2823 C.ar    1  UNL1       -0.0030
     13 C         137.9529  138.6118  166.9437 C.ar    1  UNL1       -0.0003
     14 C         138.2049  137.6189  165.8481 C.ar    1  UNL1       -0.0001
     15 C         139.4995  137.6498  165.0910 C.ar    1  UNL1        0.0036
     16 C         140.5420  138.6737  165.4296 C.ar    1  UNL1        0.0688
     17 C         141.8366  138.7046  164.6725 C.3     1  UNL1        0.4183
     18 F         143.1311  138.7356  163.9154 F       1  UNL1       -0.1659
     19 F         142.4666  137.8281  165.7140 F       1  UNL1       -0.1659
     20 F         141.2066  139.5812  163.6310 F       1  UNL1       -0.1659
     21 C         140.1252  144.9274  161.0521 C.2     1  UNL1        0.2654
     22 O         138.8984  144.9828  161.9134 O.2     1  UNL1       -0.2684
     23 N         141.4861  144.9683  161.6816 N.am    1  UNL1       -0.2985
     24 H         142.2913  144.9320  161.1162 H       1  UNL1        0.1498
     25 C         139.5208  143.9840  157.3358 C.ar    1  UNL1        0.0622
     26 C         139.4851  143.6440  158.7963 C.ar    1  UNL1        0.0402
     27 C         139.9911  144.8310  159.5612 C.ar    1  UNL1        0.1555
     28 N         140.3396  145.9047  158.5734 N.ar    1  UNL1       -0.1608
     29 N         140.0489  145.3813  157.1980 N.ar    1  UNL1       -0.2336
     30 C         140.2508  146.1245  155.9109 C.ar    1  UNL1        0.0824
     31 C         139.4996  147.3972  155.6538 C.ar    1  UNL1        0.0191
     32 C         139.7016  148.1403  154.3666 C.ar    1  UNL1        0.0015
     33 C         140.6547  147.6109  153.3365 C.ar    1  UNL1        0.0001
     34 C         141.4059  146.3383  153.5935 C.ar    1  UNL1        0.0015
     35 C         141.2040  145.5950  154.8807 C.ar    1  UNL1        0.0191
     36 C         139.1020  143.0848  156.2107 C.3     1  UNL1        0.0459
     37 C         137.2578  144.3541  154.8924 C.3     1  UNL1        0.0004
     38 C         137.7022  143.1547  155.6760 C.3     1  UNL1        0.0059
     39 C         136.7470  142.0254  155.9249 C.3     1  UNL1        0.0004
@<TRIPOS>BOND
     1    37    38    1
     2    38    39    1
     3    38    36    1
     4    36    25    1
     5    25    26   ar
     6    26    27   ar
     7    27    21    1
     8    21    22    2
     9    21    23   am
    10    23     1    1
    11     1     2    1
    12     2     8    1
    13     8     9    3
    14     2     3    1
    15     3     4    1
    16     4     5    1
    17     5    10    1
    18    10    11    1
    19    11    12   ar
    20    12    13   ar
    21    13    14   ar
    22    14    15   ar
    23    15    16   ar
    24    16    17    1
    25    17    18    1
    26    17    19    1
    27    17    20    1
    28     5     6    1
    29     6     7    1
    30    27    28   ar
    31    28    29   ar
    32    29    30    1
    33    30    31   ar
    34    31    32   ar
    35    32    33   ar
    36    33    34   ar
    37    34    35   ar
    38    29    25   ar
    39    35    30   ar
    40     7     2    1
    41    16    11   ar
    42    23    24    1
@<TRIPOS>MOLECULE
*****
 39 42 0 0 0
SMALL
GASTEIGER

@<TRIPOS>ATOM
      1 C         140.8363  145.8086  162.3729 C.3     1  UNL1        0.1038
      2 C         140.6750  144.5696  163.2029 C.3     1  UNL1        0.1000
      3 C         139.3363  144.6066  162.5273 C.3     1  UNL1        0.0332
      4 C         138.3207  143.5412  162.8162 C.3     1  UNL1        0.0735
      5 N         138.6439  142.4388  163.7807 N.3     1  UNL1       -0.2689
      6 C         139.9825  142.4018  164.4563 C.3     1  UNL1        0.0735
      7 C         140.9981  143.4672  164.1674 C.3     1  UNL1        0.0332
      8 C         142.0697  144.9629  163.5902 C.1     1  UNL1        0.0729
      9 N         143.4645  145.3563  163.9775 N.1     1  UNL1       -0.1959
     10 C         137.6282  141.3734  164.0696 C.3     1  UNL1        0.0991
     11 C         138.0762  139.9858  164.4216 C.ar    1  UNL1       -0.0022
     12 C         138.0188  139.5177  165.8455 C.ar    1  UNL1       -0.0030
     13 C         138.4668  138.1301  166.1974 C.ar    1  UNL1       -0.0003
     14 C         138.9722  137.2106  165.1255 C.ar    1  UNL1       -0.0001
     15 C         139.0297  137.6787  163.7015 C.ar    1  UNL1        0.0036
     16 C         138.5817  139.0663  163.3496 C.ar    1  UNL1        0.0688
     17 C         138.6391  139.5344  161.9257 C.3     1  UNL1        0.4183
     18 F         138.6965  140.0025  160.5017 F       1  UNL1       -0.1659
     19 F         137.2566  139.0003  161.6943 F       1  UNL1       -0.1659
     20 F         140.0215  140.0686  162.1570 F       1  UNL1       -0.1659
     21 C         141.2483  145.1395  159.8965 C.2     1  UNL1        0.2654
     22 O         142.5283  144.4648  160.2917 O.2     1  UNL1       -0.2684
     23 N         140.4022  145.8114  160.9371 N.am    1  UNL1       -0.2985
     24 H         139.5621  146.2543  160.6777 H       1  UNL1        0.1498
     25 C         140.6206  145.7101  156.1089 C.ar    1  UNL1        0.0622
     26 C         141.3266  146.0554  157.3865 C.ar    1  UNL1        0.0402
     27 C         140.8142  145.1424  158.4607 C.ar    1  UNL1        0.1555
     28 N         139.7914  144.2328  157.8470 N.ar    1  UNL1       -0.1608
     29 N         139.6717  144.5836  156.3934 N.ar    1  UNL1       -0.2336
     30 C         138.7629  143.9239  155.3992 C.ar    1  UNL1        0.0824
     31 C         139.0226  142.5109  154.9679 C.ar    1  UNL1        0.0191
     32 C         138.1137  141.8512  153.9736 C.ar    1  UNL1        0.0015
     33 C         136.9452  142.6045  153.4105 C.ar    1  UNL1        0.0001
     34 C         136.6855  144.0174  153.8416 C.ar    1  UNL1        0.0015
     35 C         137.5944  144.6772  154.8360 C.ar    1  UNL1        0.0191
     36 C         140.8271  146.3745  154.7800 C.3     1  UNL1        0.0459
     37 C         138.9580  148.0929  155.3308 C.3     1  UNL1        0.0004
     38 C         140.0722  147.6259  154.4418 C.3     1  UNL1        0.0059
     39 C         140.4316  148.4101  153.2148 C.3     1  UNL1        0.0004
@<TRIPOS>BOND
     1    37    38    1
     2    38    39    1
     3    38    36    1
     4    36    25    1
     5    25    26   ar
     6    26    27   ar
     7    27    21    1
     8    21    22    2
     9    21    23   am
    10    23     1    1
    11     1     2    1
    12     2     8    1
    13     8     9    3
    14     2     3    1
    15     3     4    1
    16     4     5    1
    17     5    10    1
    18    10    11    1
    19    11    12   ar
    20    12    13   ar
    21    13    14   ar
    22    14    15   ar
    23    15    16   ar
    24    16    17    1
    25    17    18    1
    26    17    19    1
    27    17    20    1
    28     5     6    1
    29     6     7    1
    30    27    28   ar
    31    28    29   ar
    32    29    30    1
    33    30    31   ar
    34    31    32   ar
    35    32    33   ar
    36    33    34   ar
    37    34    35   ar
    38    29    25   ar
    39    35    30   ar
    40     7     2    1
    41    16    11   ar
    42    23    24    1
