@<TRIPOS>MOLECULE
*****
 31 33 0 0 0
SMALL
GASTEIGER

@<TRIPOS>ATOM
      1 C         143.1246  142.6700  164.4381 C.ar    1  UNL1       -0.0207
      2 C         143.5388  141.5135  165.2987 C.ar    1  UNL1       -0.0042
      3 C         142.5929  140.9669  166.3265 C.ar    1  UNL1       -0.0003
      4 C         141.2327  141.5768  166.4936 C.ar    1  UNL1        0.0012
      5 C         140.8185  142.7334  165.6329 C.ar    1  UNL1       -0.0003
      6 C         141.7644  143.2800  164.6051 C.ar    1  UNL1       -0.0042
      7 C         140.2867  141.0302  167.5214 C.ar    1  UNL1        0.0158
      8 C         139.3001  139.9660  167.1419 C.ar    1  UNL1        0.0781
      9 N         138.3542  139.4193  168.1698 N.ar    1  UNL1       -0.2922
     10 C         137.3676  138.3551  167.7903 C.3     1  UNL1        0.1336
     11 C         138.3948  139.9369  169.5770 C.ar    1  UNL1        0.2608
     12 O         137.4489  139.3903  170.6048 O.2     1  UNL1       -0.2670
     13 C         139.3815  141.0011  169.9565 C.ar    1  UNL1        0.0589
     14 C         140.3274  141.5478  168.9287 C.ar    1  UNL1        0.0131
     15 C         141.3141  142.6120  169.3081 C.3     1  UNL1        0.1638
     16 O         140.8319  143.9805  169.6886 O.3     1  UNL1       -0.3772
     17 H         140.4233  144.4052  168.9182 H       1  UNL1        0.2109
     18 C         144.1053  144.6901  163.1312 C.3     1  UNL1        0.0066
     19 C         144.0706  143.2167  163.4102 C.3     1  UNL1        0.0454
     20 C         144.9819  142.2899  162.6615 C.3     1  UNL1        0.1325
     21 N         146.3088  141.9075  163.2473 N.3     1  UNL1       -0.3148
     22 H         146.4261  142.3653  164.1512 H       1  UNL1        0.1192
     23 H         147.0557  142.2013  162.6179 H       1  UNL1        0.1192
     24 C         144.5663  141.7456  161.3270 C.2     1  UNL1        0.2401
     25 O         144.5795  142.6332  160.1178 O.2     1  UNL1       -0.2734
     26 N         144.1375  140.3137  161.2015 N.am    1  UNL1       -0.2756
     27 C         144.0734  139.3117  162.3159 C.3     1  UNL1        0.0964
     28 C         143.5938  138.0111  161.7428 C.3     1  UNL1        0.0585
     29 C         143.3615  138.2093  160.2742 C.3     1  UNL1        0.1824
     30 F         142.8780  137.1673  159.3095 F       1  UNL1       -0.2354
     31 C         143.6975  139.6324  159.9397 C.3     1  UNL1        0.1286
@<TRIPOS>BOND
     1    19    18    1
     2    19     1    1
     3     1     2   ar
     4     2     3   ar
     5     3     4   ar
     6     4     7    1
     7     7     8   ar
     8     8     9   ar
     9     9    10    1
    10     9    11   ar
    11    11    12    2
    12    11    13   ar
    13    13    14   ar
    14    14    15    1
    15    15    16    1
    16     4     5   ar
    17     5     6   ar
    18    19    20    1
    19    20    21    1
    20    20    24    1
    21    24    25    2
    22    24    26   am
    23    26    27    1
    24    27    28    1
    25    28    29    1
    26    29    30    1
    27    29    31    1
    28     6     1   ar
    29    31    26    1
    30    14     7   ar
    31    16    17    1
    32    21    22    1
    33    21    23    1
@<TRIPOS>MOLECULE
*****
 31 33 0 0 0
SMALL
GASTEIGER

@<TRIPOS>ATOM
      1 C         142.9000  139.7112  163.7877 C.ar    1  UNL1       -0.0207
      2 C         143.2631  138.8994  164.9956 C.ar    1  UNL1       -0.0042
      3 C         142.8300  139.3493  166.3594 C.ar    1  UNL1       -0.0003
      4 C         142.0338  140.6110  166.5152 C.ar    1  UNL1        0.0012
      5 C         141.6707  141.4228  165.3073 C.ar    1  UNL1       -0.0003
      6 C         142.1038  140.9729  163.9435 C.ar    1  UNL1       -0.0042
      7 C         141.6007  141.0609  167.8791 C.ar    1  UNL1        0.0158
      8 C         142.5011  141.9338  168.7020 C.ar    1  UNL1        0.0781
      9 N         142.0680  142.3837  170.0658 N.ar    1  UNL1       -0.2922
     10 C         142.9684  143.2566  170.8887 C.3     1  UNL1        0.1336
     11 C         140.7344  141.9606  170.6068 C.ar    1  UNL1        0.2608
     12 O         140.3012  142.4105  171.9706 O.2     1  UNL1       -0.2670
     13 C         139.8339  141.0876  169.7838 C.ar    1  UNL1        0.0589
     14 C         140.2671  140.6378  168.4200 C.ar    1  UNL1        0.0131
     15 C         139.3666  139.7648  167.5970 C.3     1  UNL1        0.1638
     16 O         138.1797  139.1024  168.2314 O.3     1  UNL1       -0.3772
     17 H         138.4829  138.4527  168.8847 H       1  UNL1        0.2109
     18 C         144.4346  139.9868  161.7094 C.3     1  UNL1        0.0066
     19 C         143.3332  139.2613  162.4238 C.3     1  UNL1        0.0454
     20 C         142.6648  138.0859  161.7744 C.3     1  UNL1        0.1325
     21 N         143.4579  137.1613  160.8991 N.3     1  UNL1       -0.3148
     22 H         144.4261  137.4796  160.8575 H       1  UNL1        0.1192
     23 H         143.0605  137.1580  159.9597 H       1  UNL1        0.1192
     24 C         141.2032  137.8352  162.0002 C.2     1  UNL1        0.2401
     25 O         140.7642  136.8205  163.0140 O.2     1  UNL1       -0.2734
     26 N         140.1807  138.5990  161.2122 N.am    1  UNL1       -0.2756
     27 C         140.4673  139.6391  160.1701 C.3     1  UNL1        0.0964
     28 C         139.1557  140.1398  159.6419 C.3     1  UNL1        0.0585
     29 C         138.0584  139.4092  160.3575 C.3     1  UNL1        0.1824
     30 F         136.5862  139.5977  160.1408 F       1  UNL1       -0.2354
     31 C         138.6919  138.4570  161.3281 C.3     1  UNL1        0.1286
@<TRIPOS>BOND
     1    19    18    1
     2    19     1    1
     3     1     2   ar
     4     2     3   ar
     5     3     4   ar
     6     4     7    1
     7     7     8   ar
     8     8     9   ar
     9     9    10    1
    10     9    11   ar
    11    11    12    2
    12    11    13   ar
    13    13    14   ar
    14    14    15    1
    15    15    16    1
    16     4     5   ar
    17     5     6   ar
    18    19    20    1
    19    20    21    1
    20    20    24    1
    21    24    25    2
    22    24    26   am
    23    26    27    1
    24    27    28    1
    25    28    29    1
    26    29    30    1
    27    29    31    1
    28     6     1   ar
    29    31    26    1
    30    14     7   ar
    31    16    17    1
    32    21    22    1
    33    21    23    1
@<TRIPOS>MOLECULE
*****
 31 33 0 0 0
SMALL
GASTEIGER

@<TRIPOS>ATOM
      1 C         143.1851  140.4155  163.4900 C.ar    1  UNL1       -0.0207
      2 C         142.3535  141.6343  163.7599 C.ar    1  UNL1       -0.0042
      3 C         141.8969  141.9365  165.1563 C.ar    1  UNL1       -0.0003
      4 C         142.2721  141.0200  166.2830 C.ar    1  UNL1        0.0012
      5 C         143.1038  139.8013  166.0131 C.ar    1  UNL1       -0.0003
      6 C         143.5603  139.4990  164.6166 C.ar    1  UNL1       -0.0042
      7 C         141.8156  141.3223  167.6795 C.ar    1  UNL1        0.0158
      8 C         142.6553  142.1868  168.5725 C.ar    1  UNL1        0.0781
      9 N         142.1987  142.4892  169.9690 N.ar    1  UNL1       -0.2922
     10 C         143.0384  143.3537  170.8620 C.3     1  UNL1        0.1336
     11 C         140.9024  141.9269  170.4725 C.ar    1  UNL1        0.2608
     12 O         140.4459  142.2292  171.8689 O.2     1  UNL1       -0.2670
     13 C         140.0627  141.0623  169.5794 C.ar    1  UNL1        0.0589
     14 C         140.5193  140.7601  168.1830 C.ar    1  UNL1        0.0131
     15 C         139.6795  139.8955  167.2899 C.3     1  UNL1        0.1638
     16 O         138.4969  139.1631  167.8512 O.3     1  UNL1       -0.3772
     17 H         138.8015  138.4946  168.4847 H       1  UNL1        0.2109
     18 C         144.4996  141.0976  161.3553 C.3     1  UNL1        0.0066
     19 C         143.6417  140.1132  162.0935 C.3     1  UNL1        0.0454
     20 C         143.2403  138.8265  161.4352 C.3     1  UNL1        0.1325
     21 N         144.1188  137.6165  161.5556 N.3     1  UNL1       -0.3148
     22 H         144.9402  137.8470  162.1147 H       1  UNL1        0.1192
     23 H         144.4134  137.3164  160.6263 H       1  UNL1        0.1192
     24 C         141.9606  138.7496  160.6567 C.2     1  UNL1        0.2401
     25 O         141.9663  138.9998  159.1776 O.2     1  UNL1       -0.2734
     26 N         140.6750  138.4227  161.3571 N.am    1  UNL1       -0.2756
     27 C         140.5145  138.1496  162.8232 C.3     1  UNL1        0.0964
     28 C         139.0646  137.8695  163.0866 C.3     1  UNL1        0.0585
     29 C         138.3290  137.9696  161.7831 C.3     1  UNL1        0.1824
     30 F         136.8566  137.7639  161.5836 F       1  UNL1       -0.2354
     31 C         139.3243  138.3114  160.7143 C.3     1  UNL1        0.1286
@<TRIPOS>BOND
     1    19    18    1
     2    19     1    1
     3     1     2   ar
     4     2     3   ar
     5     3     4   ar
     6     4     7    1
     7     7     8   ar
     8     8     9   ar
     9     9    10    1
    10     9    11   ar
    11    11    12    2
    12    11    13   ar
    13    13    14   ar
    14    14    15    1
    15    15    16    1
    16     4     5   ar
    17     5     6   ar
    18    19    20    1
    19    20    21    1
    20    20    24    1
    21    24    25    2
    22    24    26   am
    23    26    27    1
    24    27    28    1
    25    28    29    1
    26    29    30    1
    27    29    31    1
    28     6     1   ar
    29    31    26    1
    30    14     7   ar
    31    16    17    1
    32    21    22    1
    33    21    23    1
@<TRIPOS>MOLECULE
*****
 31 33 0 0 0
SMALL
GASTEIGER

@<TRIPOS>ATOM
      1 C         141.9935  139.2999  163.7067 C.ar    1  UNL1       -0.0207
      2 C         142.7673  138.7575  164.8716 C.ar    1  UNL1       -0.0042
      3 C         142.4931  139.2656  166.2560 C.ar    1  UNL1       -0.0003
      4 C         141.4451  140.3161  166.4755 C.ar    1  UNL1        0.0012
      5 C         140.6713  140.8584  165.3106 C.ar    1  UNL1       -0.0003
      6 C         140.9455  140.3503  163.9262 C.ar    1  UNL1       -0.0042
      7 C         141.1710  140.8242  167.8600 C.ar    1  UNL1        0.0158
      8 C         142.1710  141.7062  168.5469 C.ar    1  UNL1        0.0781
      9 N         141.8969  142.2143  169.9314 N.ar    1  UNL1       -0.2922
     10 C         142.8969  143.0964  170.6183 C.3     1  UNL1        0.1336
     11 C         140.6227  141.8403  170.6289 C.ar    1  UNL1        0.2608
     12 O         140.3485  142.3484  172.0133 O.2     1  UNL1       -0.2670
     13 C         139.6226  140.9582  169.9419 C.ar    1  UNL1        0.0589
     14 C         139.8968  140.4502  168.5575 C.ar    1  UNL1        0.0131
     15 C         138.8967  139.5680  167.8705 C.3     1  UNL1        0.1638
     16 O         137.7334  139.0136  168.6383 O.3     1  UNL1       -0.3772
     17 H         138.0563  138.3973  169.3141 H       1  UNL1        0.2109
     18 C         141.5183  137.6030  161.7975 C.3     1  UNL1        0.0066
     19 C         142.2676  138.7917  162.3222 C.3     1  UNL1        0.0454
     20 C         143.2910  139.4725  161.4624 C.3     1  UNL1        0.1325
     21 N         144.4937  138.7138  160.9848 N.3     1  UNL1       -0.3148
     22 H         144.4538  137.7571  161.3363 H       1  UNL1        0.1192
     23 H         145.3403  139.1672  161.3285 H       1  UNL1        0.1192
     24 C         143.1118  140.9119  161.0803 C.2     1  UNL1        0.2401
     25 O         142.4480  141.2663  159.7826 O.2     1  UNL1       -0.2734
     26 N         143.5964  141.9968  161.9957 N.am    1  UNL1       -0.2756
     27 C         144.2749  141.7967  163.3184 C.3     1  UNL1        0.0964
     28 C         144.5854  143.1486  163.8894 C.3     1  UNL1        0.0585
     29 C         144.0987  144.1843  162.9196 C.3     1  UNL1        0.1824
     30 F         144.2046  145.6708  163.0901 F       1  UNL1       -0.2354
     31 C         143.4875  143.4724  161.7492 C.3     1  UNL1        0.1286
@<TRIPOS>BOND
     1    19    18    1
     2    19     1    1
     3     1     2   ar
     4     2     3   ar
     5     3     4   ar
     6     4     7    1
     7     7     8   ar
     8     8     9   ar
     9     9    10    1
    10     9    11   ar
    11    11    12    2
    12    11    13   ar
    13    13    14   ar
    14    14    15    1
    15    15    16    1
    16     4     5   ar
    17     5     6   ar
    18    19    20    1
    19    20    21    1
    20    20    24    1
    21    24    25    2
    22    24    26   am
    23    26    27    1
    24    27    28    1
    25    28    29    1
    26    29    30    1
    27    29    31    1
    28     6     1   ar
    29    31    26    1
    30    14     7   ar
    31    16    17    1
    32    21    22    1
    33    21    23    1
@<TRIPOS>MOLECULE
*****
 31 33 0 0 0
SMALL
GASTEIGER

@<TRIPOS>ATOM
      1 C         143.2277  142.6956  164.2320 C.ar    1  UNL1       -0.0207
      2 C         141.9731  143.4236  164.6137 C.ar    1  UNL1       -0.0042
      3 C         141.1011  142.8904  165.7116 C.ar    1  UNL1       -0.0003
      4 C         141.4838  141.6291  166.4276 C.ar    1  UNL1        0.0012
      5 C         142.7384  140.9011  166.0459 C.ar    1  UNL1       -0.0003
      6 C         143.6104  141.4343  164.9480 C.ar    1  UNL1       -0.0042
      7 C         140.6117  141.0959  167.5255 C.ar    1  UNL1        0.0158
      8 C         140.9174  141.4302  168.9554 C.ar    1  UNL1        0.0781
      9 N         140.0453  140.8970  170.0533 N.ar    1  UNL1       -0.2922
     10 C         140.3510  141.2313  171.4832 C.3     1  UNL1        0.1336
     11 C         138.8676  140.0294  169.7212 C.ar    1  UNL1        0.2608
     12 O         137.9956  139.4962  170.8189 O.2     1  UNL1       -0.2670
     13 C         138.5620  139.6951  168.2911 C.ar    1  UNL1        0.0589
     14 C         139.4340  140.2283  167.1934 C.ar    1  UNL1        0.0131
     15 C         139.1284  139.8939  165.7633 C.3     1  UNL1        0.1638
     16 O         138.0448  140.6329  165.0355 O.3     1  UNL1       -0.3772
     17 H         137.1865  140.4266  165.4374 H       1  UNL1        0.2109
     18 C         144.1012  144.6962  162.8232 C.3     1  UNL1        0.0066
     19 C         144.0998  143.2288  163.1341 C.3     1  UNL1        0.0454
     20 C         144.9704  142.2946  162.3472 C.3     1  UNL1        0.1325
     21 N         146.3322  141.9287  162.8587 N.3     1  UNL1       -0.3148
     22 H         146.5004  142.4019  163.7465 H       1  UNL1        0.1192
     23 H         147.0384  142.2160  162.1811 H       1  UNL1        0.1192
     24 C         144.4792  141.7263  161.0488 C.2     1  UNL1        0.2401
     25 O         144.3990  142.5984  159.8310 O.2     1  UNL1       -0.2734
     26 N         144.0683  140.2859  160.9683 N.am    1  UNL1       -0.2756
     27 C         144.0937  139.2974  162.0962 C.3     1  UNL1        0.0964
     28 C         143.6009  137.9817  161.5706 C.3     1  UNL1        0.0585
     29 C         143.2710  138.1571  160.1179 C.3     1  UNL1        0.1824
     30 F         142.7446  137.0949  159.1988 F       1  UNL1       -0.2354
     31 C         143.5599  139.5812  159.7457 C.3     1  UNL1        0.1286
@<TRIPOS>BOND
     1    19    18    1
     2    19     1    1
     3     1     2   ar
     4     2     3   ar
     5     3     4   ar
     6     4     7    1
     7     7     8   ar
     8     8     9   ar
     9     9    10    1
    10     9    11   ar
    11    11    12    2
    12    11    13   ar
    13    13    14   ar
    14    14    15    1
    15    15    16    1
    16     4     5   ar
    17     5     6   ar
    18    19    20    1
    19    20    21    1
    20    20    24    1
    21    24    25    2
    22    24    26   am
    23    26    27    1
    24    27    28    1
    25    28    29    1
    26    29    30    1
    27    29    31    1
    28     6     1   ar
    29    31    26    1
    30    14     7   ar
    31    16    17    1
    32    21    22    1
    33    21    23    1
@<TRIPOS>MOLECULE
*****
 31 33 0 0 0
SMALL
GASTEIGER

@<TRIPOS>ATOM
      1 C         140.7438  142.7899  163.1106 C.ar    1  UNL1       -0.0207
      2 C         141.5407  141.6195  163.6056 C.ar    1  UNL1       -0.0042
      3 C         141.5289  141.2668  165.0634 C.ar    1  UNL1       -0.0003
      4 C         140.7201  142.0846  166.0264 C.ar    1  UNL1        0.0012
      5 C         139.9232  143.2550  165.5314 C.ar    1  UNL1       -0.0003
      6 C         139.9351  143.6076  164.0735 C.ar    1  UNL1       -0.0042
      7 C         140.7083  141.7319  167.4843 C.ar    1  UNL1        0.0158
      8 C         141.5607  142.5017  168.4491 C.ar    1  UNL1        0.0781
      9 N         141.5489  142.1490  169.9070 N.ar    1  UNL1       -0.2922
     10 C         142.4013  142.9188  170.8718 C.3     1  UNL1        0.1336
     11 C         140.6847  141.0265  170.4001 C.ar    1  UNL1        0.2608
     12 O         140.6728  140.6738  171.8580 O.2     1  UNL1       -0.2670
     13 C         139.8323  140.2567  169.4353 C.ar    1  UNL1        0.0589
     14 C         139.8441  140.6094  167.9774 C.ar    1  UNL1        0.0131
     15 C         138.9917  139.8396  167.0125 C.3     1  UNL1        0.1638
     16 O         138.0424  138.7945  167.5191 O.3     1  UNL1       -0.3772
     17 H         138.5454  138.0633  167.9105 H       1  UNL1        0.2109
     18 C         140.1722  142.1948  160.6470 C.3     1  UNL1        0.0066
     19 C         140.7556  143.1426  161.6526 C.3     1  UNL1        0.0454
     20 C         141.3508  144.4430  161.2004 C.3     1  UNL1        0.1325
     21 N         142.6771  144.8891  161.7410 N.3     1  UNL1       -0.3148
     22 H         143.0280  144.1925  162.3983 H       1  UNL1        0.1192
     23 H         142.5659  145.7828  162.2198 H       1  UNL1        0.1192
     24 C         140.6198  145.2975  160.2077 C.2     1  UNL1        0.2401
     25 O         139.4749  146.1564  160.6568 O.2     1  UNL1       -0.2734
     26 N         141.0335  145.2931  158.7659 N.am    1  UNL1       -0.2756
     27 C         142.1530  144.4902  158.1724 C.3     1  UNL1        0.0964
     28 C         142.2118  144.7917  156.7041 C.3     1  UNL1        0.0585
     29 C         141.1288  145.7809  156.3903 C.3     1  UNL1        0.1824
     30 F         140.8269  146.3588  155.0394 F       1  UNL1       -0.2354
     31 C         140.4006  146.0908  157.6646 C.3     1  UNL1        0.1286
@<TRIPOS>BOND
     1    19    18    1
     2    19     1    1
     3     1     2   ar
     4     2     3   ar
     5     3     4   ar
     6     4     7    1
     7     7     8   ar
     8     8     9   ar
     9     9    10    1
    10     9    11   ar
    11    11    12    2
    12    11    13   ar
    13    13    14   ar
    14    14    15    1
    15    15    16    1
    16     4     5   ar
    17     5     6   ar
    18    19    20    1
    19    20    21    1
    20    20    24    1
    21    24    25    2
    22    24    26   am
    23    26    27    1
    24    27    28    1
    25    28    29    1
    26    29    30    1
    27    29    31    1
    28     6     1   ar
    29    31    26    1
    30    14     7   ar
    31    16    17    1
    32    21    22    1
    33    21    23    1
@<TRIPOS>MOLECULE
*****
 31 33 0 0 0
SMALL
GASTEIGER

@<TRIPOS>ATOM
      1 C         140.1694  144.4163  163.0173 C.ar    1  UNL1       -0.0207
      2 C         141.3992  143.6798  163.4589 C.ar    1  UNL1       -0.0042
      3 C         141.3799  142.8814  164.7286 C.ar    1  UNL1       -0.0003
      4 C         140.1307  142.8196  165.5567 C.ar    1  UNL1        0.0012
      5 C         138.9009  143.5561  165.1151 C.ar    1  UNL1       -0.0003
      6 C         138.9202  144.3544  163.8454 C.ar    1  UNL1       -0.0042
      7 C         140.1114  142.0211  166.8265 C.ar    1  UNL1        0.0158
      8 C         140.5988  142.6345  168.1056 C.ar    1  UNL1        0.0781
      9 N         140.5795  141.8361  169.3753 N.ar    1  UNL1       -0.2922
     10 C         141.0669  142.4494  170.6544 C.3     1  UNL1        0.1336
     11 C         140.0728  140.4243  169.3659 C.ar    1  UNL1        0.2608
     12 O         140.0535  139.6258  170.6355 O.2     1  UNL1       -0.2670
     13 C         139.5854  139.8109  168.0867 C.ar    1  UNL1        0.0589
     14 C         139.6047  140.6093  166.8170 C.ar    1  UNL1        0.0131
     15 C         139.1173  139.9960  165.5378 C.3     1  UNL1        0.1638
     16 O         137.7097  140.2373  165.0790 O.3     1  UNL1       -0.3772
     17 H         137.0913  139.8253  165.7025 H       1  UNL1        0.2109
     18 C         139.6268  146.6053  161.7274 C.3     1  UNL1        0.0066
     19 C         140.1887  145.2147  161.7475 C.3     1  UNL1        0.0454
     20 C         140.7699  144.6225  160.4980 C.3     1  UNL1        0.1325
     21 N         141.8959  145.3179  159.7918 N.3     1  UNL1       -0.3148
     22 H         142.1377  146.1713  160.2955 H       1  UNL1        0.1192
     23 H         141.6078  145.5535  158.8422 H       1  UNL1        0.1192
     24 C         140.2251  143.3349  159.9545 C.2     1  UNL1        0.2401
     25 O         138.8340  143.2857  159.3956 O.2     1  UNL1       -0.2734
     26 N         141.0714  142.0966  159.9700 N.am    1  UNL1       -0.2756
     27 C         142.4731  141.9930  160.4940 C.3     1  UNL1        0.0964
     28 C         142.9326  140.5768  160.3120 C.3     1  UNL1        0.0585
     29 C         141.8149  139.8050  159.6755 C.3     1  UNL1        0.1824
     30 F         141.8426  138.3495  159.3139 F       1  UNL1       -0.2354
     31 C         140.6647  140.7443  159.4642 C.3     1  UNL1        0.1286
@<TRIPOS>BOND
     1    19    18    1
     2    19     1    1
     3     1     2   ar
     4     2     3   ar
     5     3     4   ar
     6     4     7    1
     7     7     8   ar
     8     8     9   ar
     9     9    10    1
    10     9    11   ar
    11    11    12    2
    12    11    13   ar
    13    13    14   ar
    14    14    15    1
    15    15    16    1
    16     4     5   ar
    17     5     6   ar
    18    19    20    1
    19    20    21    1
    20    20    24    1
    21    24    25    2
    22    24    26   am
    23    26    27    1
    24    27    28    1
    25    28    29    1
    26    29    30    1
    27    29    31    1
    28     6     1   ar
    29    31    26    1
    30    14     7   ar
    31    16    17    1
    32    21    22    1
    33    21    23    1
@<TRIPOS>MOLECULE
*****
 31 33 0 0 0
SMALL
GASTEIGER

@<TRIPOS>ATOM
      1 C         140.3606  144.3444  163.1662 C.ar    1  UNL1       -0.0207
      2 C         139.0263  144.1768  163.8307 C.ar    1  UNL1       -0.0042
      3 C         138.9194  143.4100  165.1154 C.ar    1  UNL1       -0.0003
      4 C         140.1468  142.8107  165.7356 C.ar    1  UNL1        0.0012
      5 C         141.4810  142.9783  165.0710 C.ar    1  UNL1       -0.0003
      6 C         141.5879  143.7451  163.7863 C.ar    1  UNL1       -0.0042
      7 C         140.0398  142.0439  167.0204 C.ar    1  UNL1        0.0158
      8 C         140.4046  142.7009  168.3185 C.ar    1  UNL1        0.0781
      9 N         140.2976  141.9340  169.6033 N.ar    1  UNL1       -0.2922
     10 C         140.6624  142.5910  170.9015 C.3     1  UNL1        0.1336
     11 C         139.8259  140.5102  169.5898 C.ar    1  UNL1        0.2608
     12 O         139.7189  139.7434  170.8745 O.2     1  UNL1       -0.2670
     13 C         139.4611  139.8532  168.2916 C.ar    1  UNL1        0.0589
     14 C         139.5681  140.6201  167.0069 C.ar    1  UNL1        0.0131
     15 C         139.2033  139.9631  165.7086 C.3     1  UNL1        0.1638
     16 O         137.8093  140.0901  165.1695 O.3     1  UNL1       -0.3772
     17 H         137.1909  139.6341  165.7616 H       1  UNL1        0.2109
     18 C         139.7309  146.4076  161.7182 C.3     1  UNL1        0.0066
     19 C         140.4675  145.1112  161.8814 C.3     1  UNL1        0.0454
     20 C         141.3112  144.5816  160.7599 C.3     1  UNL1        0.1325
     21 N         141.8593  145.5201  159.7260 N.3     1  UNL1       -0.3148
     22 H         141.5619  146.4722  159.9392 H       1  UNL1        0.1192
     23 H         141.5106  145.2530  158.8054 H       1  UNL1        0.1192
     24 C         141.6067  143.1137  160.6723 C.2     1  UNL1        0.2401
     25 O         143.0042  142.6154  160.8937 O.2     1  UNL1       -0.2734
     26 N         140.5049  142.1439  160.3633 N.am    1  UNL1       -0.2756
     27 C         139.0665  142.4922  160.1192 C.3     1  UNL1        0.0964
     28 C         138.3205  141.2192  159.8492 C.3     1  UNL1        0.0585
     29 C         139.2980  140.0840  159.9264 C.3     1  UNL1        0.1824
     30 F         138.9811  138.6322  159.7219 F       1  UNL1       -0.2354
     31 C         140.6480  140.6555  160.2442 C.3     1  UNL1        0.1286
@<TRIPOS>BOND
     1    19    18    1
     2    19     1    1
     3     1     2   ar
     4     2     3   ar
     5     3     4   ar
     6     4     7    1
     7     7     8   ar
     8     8     9   ar
     9     9    10    1
    10     9    11   ar
    11    11    12    2
    12    11    13   ar
    13    13    14   ar
    14    14    15    1
    15    15    16    1
    16     4     5   ar
    17     5     6   ar
    18    19    20    1
    19    20    21    1
    20    20    24    1
    21    24    25    2
    22    24    26   am
    23    26    27    1
    24    27    28    1
    25    28    29    1
    26    29    30    1
    27    29    31    1
    28     6     1   ar
    29    31    26    1
    30    14     7   ar
    31    16    17    1
    32    21    22    1
    33    21    23    1
@<TRIPOS>MOLECULE
*****
 31 33 0 0 0
SMALL
GASTEIGER

@<TRIPOS>ATOM
      1 C         140.3599  144.2022  163.1259 C.ar    1  UNL1       -0.0207
      2 C         139.2636  144.5155  164.1005 C.ar    1  UNL1       -0.0042
      3 C         139.1802  143.7712  165.4002 C.ar    1  UNL1       -0.0003
      4 C         140.1930  142.7136  165.7251 C.ar    1  UNL1        0.0012
      5 C         141.2893  142.4002  164.7505 C.ar    1  UNL1       -0.0003
      6 C         141.3727  143.1445  163.4509 C.ar    1  UNL1       -0.0042
      7 C         140.1096  141.9693  167.0248 C.ar    1  UNL1        0.0158
      8 C         140.6915  142.5682  168.2708 C.ar    1  UNL1        0.0781
      9 N         140.6081  141.8239  169.5705 N.ar    1  UNL1       -0.2922
     10 C         141.1900  142.4228  170.8165 C.3     1  UNL1        0.1336
     11 C         139.9426  140.4807  169.6241 C.ar    1  UNL1        0.2608
     12 O         139.8591  139.7364  170.9237 O.2     1  UNL1       -0.2670
     13 C         139.3606  139.8817  168.3780 C.ar    1  UNL1        0.0589
     14 C         139.4441  140.6260  167.0784 C.ar    1  UNL1        0.0131
     15 C         138.8621  140.0271  165.8323 C.3     1  UNL1        0.1638
     16 O         137.5752  139.2594  165.8995 O.3     1  UNL1       -0.3772
     17 H         137.7070  138.4524  166.4213 H       1  UNL1        0.2109
     18 C         139.8037  146.2966  161.6927 C.3     1  UNL1        0.0066
     19 C         140.4434  144.9465  161.8262 C.3     1  UNL1        0.0454
     20 C         141.1665  144.3405  160.6600 C.3     1  UNL1        0.1325
     21 N         142.6650  144.3802  160.6039 N.3     1  UNL1       -0.3148
     22 H         143.0239  144.8524  161.4337 H       1  UNL1        0.1192
     23 H         142.9607  144.8870  159.7696 H       1  UNL1        0.1192
     24 C         140.3912  143.6950  159.5500 C.2     1  UNL1        0.2401
     25 O         139.8795  142.2938  159.7088 O.2     1  UNL1       -0.2734
     26 N         140.1276  144.4504  158.2813 N.am    1  UNL1       -0.2756
     27 C         140.5737  145.8505  157.9798 C.3     1  UNL1        0.0964
     28 C         140.0934  146.2038  156.6034 C.3     1  UNL1        0.0585
     29 C         139.3503  145.0222  156.0542 C.3     1  UNL1        0.1824
     30 F         138.7003  144.9388  154.7050 F       1  UNL1       -0.2354
     31 C         139.3715  143.9386  157.0912 C.3     1  UNL1        0.1286
@<TRIPOS>BOND
     1    19    18    1
     2    19     1    1
     3     1     2   ar
     4     2     3   ar
     5     3     4   ar
     6     4     7    1
     7     7     8   ar
     8     8     9   ar
     9     9    10    1
    10     9    11   ar
    11    11    12    2
    12    11    13   ar
    13    13    14   ar
    14    14    15    1
    15    15    16    1
    16     4     5   ar
    17     5     6   ar
    18    19    20    1
    19    20    21    1
    20    20    24    1
    21    24    25    2
    22    24    26   am
    23    26    27    1
    24    27    28    1
    25    28    29    1
    26    29    30    1
    27    29    31    1
    28     6     1   ar
    29    31    26    1
    30    14     7   ar
    31    16    17    1
    32    21    22    1
    33    21    23    1
