@<TRIPOS>MOLECULE
*****
 36 40 0 0 0
SMALL
GASTEIGER

@<TRIPOS>ATOM
      1 C         137.9046  140.1041  161.8713 C.3     1  UNL1        0.0901
      2 C         137.6817  140.3944  163.3259 C.3     1  UNL1        0.0359
      3 C         137.6660  141.8127  163.8139 C.3     1  UNL1        0.0737
      4 N         137.8731  142.9408  162.8472 N.3     1  UNL1       -0.2687
      5 C         138.0959  142.6505  161.3925 C.3     1  UNL1        0.1092
      6 C         138.1117  141.2322  160.9046 C.3     1  UNL1        0.1911
      7 F         138.3345  140.9420  159.4499 F       1  UNL1       -0.2343
      8 N         137.9203  138.6858  161.3834 N.3     1  UNL1       -0.2913
      9 H         137.4548  138.1240  162.0962 H       1  UNL1        0.1236
     10 C         139.2256  138.0102  161.0836 C.3     1  UNL1        0.1152
     11 O         145.9220  141.6307  162.7571 O.2     1  UNL1       -0.2707
     12 C         144.8653  140.6260  163.1090 C.2     1  UNL1        0.2718
     13 C         144.9839  139.8233  164.3706 C.3     1  UNL1        0.2898
     14 O         143.9272  138.8186  164.7225 O.3     1  UNL1       -0.4628
     15 C         142.7518  138.6165  163.8128 C.ar    1  UNL1        0.1708
     16 C         141.6951  137.6117  164.1647 C.ar    1  UNL1        0.0411
     17 C         140.5197  137.4096  163.2550 C.ar    1  UNL1        0.0193
     18 C         140.4010  138.2123  161.9933 C.ar    1  UNL1        0.0765
     19 N         141.4577  139.2171  161.6414 N.ar    1  UNL1       -0.2304
     20 C         142.6332  139.4191  162.5512 C.ar    1  UNL1        0.1682
     21 N         143.6899  140.4239  162.1993 N.am    1  UNL1       -0.2639
     22 H         143.6120  140.9507  161.3713 H       1  UNL1        0.1565
     23 C         137.8574  144.3591  163.3351 C.3     1  UNL1        0.0970
     24 C         138.8386  144.8041  164.3787 C.3     1  UNL1        0.1264
     25 N         140.2951  144.4794  164.2258 N.ar    1  UNL1       -0.2926
     26 C         141.0990  145.1321  163.1406 C.ar    1  UNL1        0.2611
     27 O         140.4465  146.1095  162.2083 O.2     1  UNL1       -0.2670
     28 C         142.5554  144.8074  162.9876 C.ar    1  UNL1        0.0623
     29 C         143.2080  143.8300  163.9198 C.ar    1  UNL1        0.0255
     30 C         142.4040  143.1774  165.0050 C.ar    1  UNL1        0.0974
     31 N         143.0564  142.2000  165.9373 N.ar    1  UNL1       -0.2400
     32 C         142.2525  141.5474  167.0225 C.ar    1  UNL1        0.1285
     33 C         140.7961  141.8720  167.1754 C.ar    1  UNL1        0.1607
     34 F         139.9921  141.2193  168.2607 F       1  UNL1       -0.2025
     35 C         140.1436  142.8494  166.2432 C.ar    1  UNL1        0.0500
     36 C         140.9475  143.5021  165.1580 C.ar    1  UNL1        0.0824
@<TRIPOS>BOND
     1    11    12    2
     2    12    13    1
     3    13    14    1
     4    14    15    1
     5    15    16   ar
     6    16    17   ar
     7    17    18   ar
     8    18    10    1
     9    10     8    1
    10     1     8    1
    11     1     2    1
    12     2     3    1
    13     3     4    1
    14     4    23    1
    15    23    24    1
    16    24    25    1
    17    25    26   ar
    18    26    27    2
    19    26    28   ar
    20    28    29   ar
    21    29    30   ar
    22    30    31   ar
    23    31    32   ar
    24    32    33   ar
    25    33    34    1
    26    33    35   ar
    27    35    36   ar
    28     4     5    1
    29     5     6    1
    30     6     7    1
    31    18    19   ar
    32    19    20   ar
    33    20    21    1
    34    21    12   am
    35    20    15   ar
    36     6     1    1
    37    36    25   ar
    38    36    30   ar
    39     8     9    1
    40    21    22    1
@<TRIPOS>MOLECULE
*****
 36 40 0 0 0
SMALL
GASTEIGER

@<TRIPOS>ATOM
      1 C         139.9529  143.9269  162.1244 C.3     1  UNL1        0.0901
      2 C         141.1368  143.3748  161.3872 C.3     1  UNL1        0.0359
      3 C         142.5138  143.5190  161.9645 C.3     1  UNL1        0.0737
      4 N         142.7068  144.2154  163.2789 N.3     1  UNL1       -0.2687
      5 C         141.5228  144.7676  164.0161 C.3     1  UNL1        0.1092
      6 C         140.1459  144.6233  163.4388 C.3     1  UNL1        0.1911
      7 F         138.9620  145.1754  164.1760 F       1  UNL1       -0.2343
      8 N         138.5760  143.7826  161.5471 N.3     1  UNL1       -0.2913
      9 H         137.9188  144.0197  162.2903 H       1  UNL1        0.1236
     10 C         138.1339  142.4653  160.9821 C.3     1  UNL1        0.1152
     11 O         137.7519  138.6557  167.7712 O.2     1  UNL1       -0.2707
     12 C         138.0647  138.6678  166.3042 C.2     1  UNL1        0.2718
     13 C         138.5630  137.4223  165.6333 C.3     1  UNL1        0.2898
     14 O         138.8759  137.4344  164.1663 O.3     1  UNL1       -0.4628
     15 C         138.6904  138.6921  163.3703 C.ar    1  UNL1        0.1708
     16 C         139.0032  138.7042  161.9033 C.ar    1  UNL1        0.0411
     17 C         138.8177  139.9619  161.1072 C.ar    1  UNL1        0.0193
     18 C         138.3194  141.2076  161.7781 C.ar    1  UNL1        0.0765
     19 N         138.0066  141.1954  163.2451 N.ar    1  UNL1       -0.2304
     20 C         138.1921  139.9377  164.0412 C.ar    1  UNL1        0.1682
     21 N         137.8793  139.9255  165.5081 N.am    1  UNL1       -0.2639
     22 H         137.5522  140.7431  165.9485 H       1  UNL1        0.1565
     23 C         144.0837  144.3597  163.8562 C.3     1  UNL1        0.0970
     24 C         144.5099  143.4941  165.0047 C.3     1  UNL1        0.1264
     25 N         144.2520  142.0169  164.9666 N.ar    1  UNL1       -0.2926
     26 C         145.0571  141.1383  164.0556 C.ar    1  UNL1        0.2611
     27 O         146.1201  141.7370  163.1827 O.2     1  UNL1       -0.2670
     28 C         144.7994  139.6612  164.0174 C.ar    1  UNL1        0.0623
     29 C         143.7364  139.0625  164.8903 C.ar    1  UNL1        0.0255
     30 C         142.9313  139.9411  165.8013 C.ar    1  UNL1        0.0974
     31 N         141.8685  139.3425  166.6742 N.ar    1  UNL1       -0.2400
     32 C         141.0634  140.2210  167.5852 C.ar    1  UNL1        0.1285
     33 C         141.3212  141.6982  167.6234 C.ar    1  UNL1        0.1607
     34 F         140.5161  142.5768  168.5344 F       1  UNL1       -0.2025
     35 C         142.3841  142.2969  166.7505 C.ar    1  UNL1        0.0500
     36 C         143.1892  141.4183  165.8394 C.ar    1  UNL1        0.0824
@<TRIPOS>BOND
     1    11    12    2
     2    12    13    1
     3    13    14    1
     4    14    15    1
     5    15    16   ar
     6    16    17   ar
     7    17    18   ar
     8    18    10    1
     9    10     8    1
    10     1     8    1
    11     1     2    1
    12     2     3    1
    13     3     4    1
    14     4    23    1
    15    23    24    1
    16    24    25    1
    17    25    26   ar
    18    26    27    2
    19    26    28   ar
    20    28    29   ar
    21    29    30   ar
    22    30    31   ar
    23    31    32   ar
    24    32    33   ar
    25    33    34    1
    26    33    35   ar
    27    35    36   ar
    28     4     5    1
    29     5     6    1
    30     6     7    1
    31    18    19   ar
    32    19    20   ar
    33    20    21    1
    34    21    12   am
    35    20    15   ar
    36     6     1    1
    37    36    25   ar
    38    36    30   ar
    39     8     9    1
    40    21    22    1
@<TRIPOS>MOLECULE
*****
 36 40 0 0 0
SMALL
GASTEIGER

@<TRIPOS>ATOM
      1 C         143.8601  140.2806  164.4256 C.3     1  UNL1        0.0901
      2 C         143.3034  139.0726  163.7323 C.3     1  UNL1        0.0359
      3 C         141.9634  138.5295  164.1318 C.3     1  UNL1        0.0737
      4 N         141.1802  139.1944  165.2247 N.3     1  UNL1       -0.2687
      5 C         141.7369  140.4025  165.9181 C.3     1  UNL1        0.1092
      6 C         143.0768  140.9456  165.5185 C.3     1  UNL1        0.1911
      7 F         143.6335  142.1536  166.2119 F       1  UNL1       -0.2343
      8 N         145.2000  140.8237  164.0261 N.3     1  UNL1       -0.2913
      9 H         145.7901  140.7927  164.8574 H       1  UNL1        0.1236
     10 C         145.3106  142.2117  163.4680 C.3     1  UNL1        0.1152
     11 O         139.3093  146.6237  161.1727 O.2     1  UNL1       -0.2707
     12 C         140.3672  145.6065  160.8627 C.2     1  UNL1        0.2718
     13 C         140.4825  145.0427  159.4775 C.3     1  UNL1        0.2898
     14 O         141.5404  144.0255  159.1674 O.3     1  UNL1       -0.4628
     15 C         142.4829  143.5720  160.2425 C.ar    1  UNL1        0.1708
     16 C         143.5408  142.5548  159.9325 C.ar    1  UNL1        0.0411
     17 C         144.4834  142.1013  161.0076 C.ar    1  UNL1        0.0193
     18 C         144.3681  142.6651  162.3929 C.ar    1  UNL1        0.0765
     19 N         143.3102  143.6824  162.7030 N.ar    1  UNL1       -0.2304
     20 C         142.3676  144.1358  161.6277 C.ar    1  UNL1        0.1682
     21 N         141.3097  145.1530  161.9378 N.am    1  UNL1       -0.2639
     22 H         141.2340  145.5230  162.8470 H       1  UNL1        0.1565
     23 C         139.8403  138.6513  165.6243 C.3     1  UNL1        0.0970
     24 C         138.5907  139.4003  165.2672 C.3     1  UNL1        0.1264
     25 N         138.3718  139.8653  163.8579 N.ar    1  UNL1       -0.2926
     26 C         138.3675  138.8731  162.7329 C.ar    1  UNL1        0.2611
     27 O         138.5821  137.4160  163.0172 O.2     1  UNL1       -0.2670
     28 C         138.1486  139.3381  161.3237 C.ar    1  UNL1        0.0623
     29 C         137.9340  140.7952  161.0395 C.ar    1  UNL1        0.0255
     30 C         137.9383  141.7874  162.1645 C.ar    1  UNL1        0.0974
     31 N         137.7237  143.2444  161.8803 N.ar    1  UNL1       -0.2400
     32 C         137.7280  144.2366  163.0053 C.ar    1  UNL1        0.1285
     33 C         137.9469  143.7717  164.4145 C.ar    1  UNL1        0.1607
     34 F         137.9512  144.7638  165.5394 F       1  UNL1       -0.2025
     35 C         138.1615  142.3145  164.6987 C.ar    1  UNL1        0.0500
     36 C         138.1572  141.3224  163.5737 C.ar    1  UNL1        0.0824
@<TRIPOS>BOND
     1    11    12    2
     2    12    13    1
     3    13    14    1
     4    14    15    1
     5    15    16   ar
     6    16    17   ar
     7    17    18   ar
     8    18    10    1
     9    10     8    1
    10     1     8    1
    11     1     2    1
    12     2     3    1
    13     3     4    1
    14     4    23    1
    15    23    24    1
    16    24    25    1
    17    25    26   ar
    18    26    27    2
    19    26    28   ar
    20    28    29   ar
    21    29    30   ar
    22    30    31   ar
    23    31    32   ar
    24    32    33   ar
    25    33    34    1
    26    33    35   ar
    27    35    36   ar
    28     4     5    1
    29     5     6    1
    30     6     7    1
    31    18    19   ar
    32    19    20   ar
    33    20    21    1
    34    21    12   am
    35    20    15   ar
    36     6     1    1
    37    36    25   ar
    38    36    30   ar
    39     8     9    1
    40    21    22    1
@<TRIPOS>MOLECULE
*****
 36 40 0 0 0
SMALL
GASTEIGER

@<TRIPOS>ATOM
      1 C         139.9816  137.7083  162.5139 C.3     1  UNL1        0.0901
      2 C         141.2668  138.0846  161.8381 C.3     1  UNL1        0.0359
      3 C         142.4801  138.4055  162.6596 C.3     1  UNL1        0.0737
      4 N         142.4083  138.3503  164.1568 N.3     1  UNL1       -0.2687
      5 C         141.1230  137.9741  164.8326 C.3     1  UNL1        0.1092
      6 C         139.9097  137.6531  164.0112 C.3     1  UNL1        0.1911
      7 F         138.6245  137.2769  164.6870 F       1  UNL1       -0.2343
      8 N         138.7683  137.3874  161.6924 N.3     1  UNL1       -0.2913
      9 H         139.0850  137.2802  160.7288 H       1  UNL1        0.1236
     10 C         137.6087  138.3386  161.6639 C.3     1  UNL1        0.1152
     11 O         138.0139  145.0484  165.6090 O.2     1  UNL1       -0.2707
     12 C         138.1220  144.2917  164.3184 C.2     1  UNL1        0.2718
     13 C         138.4734  145.0150  163.0522 C.3     1  UNL1        0.2898
     14 O         138.5815  144.2584  161.7615 O.3     1  UNL1       -0.4628
     15 C         138.3383  142.7784  161.7371 C.ar    1  UNL1        0.1708
     16 C         138.4465  142.0218  160.4464 C.ar    1  UNL1        0.0411
     17 C         138.2033  140.5419  160.4220 C.ar    1  UNL1        0.0193
     18 C         137.8519  139.8185  161.6883 C.ar    1  UNL1        0.0765
     19 N         137.7438  140.5752  162.9789 N.ar    1  UNL1       -0.2304
     20 C         137.9870  142.0552  163.0033 C.ar    1  UNL1        0.1682
     21 N         137.8788  142.8118  164.2940 N.am    1  UNL1       -0.2639
     22 H         137.6482  142.3371  165.1250 H       1  UNL1        0.1565
     23 C         143.6216  138.6713  164.9783 C.3     1  UNL1        0.0970
     24 C         143.8910  140.0862  165.3969 C.3     1  UNL1        0.1264
     25 N         142.7759  140.9356  165.9312 N.ar    1  UNL1       -0.2926
     26 C         142.2437  142.0754  165.1141 C.ar    1  UNL1        0.2611
     27 O         142.8265  142.3658  163.7628 O.2     1  UNL1       -0.2670
     28 C         141.1287  142.9247  165.6484 C.ar    1  UNL1        0.0623
     29 C         140.5459  142.6342  166.9997 C.ar    1  UNL1        0.0255
     30 C         141.0781  141.4944  167.8168 C.ar    1  UNL1        0.0974
     31 N         140.4953  141.2039  169.1680 N.ar    1  UNL1       -0.2400
     32 C         141.0276  140.0641  169.9851 C.ar    1  UNL1        0.1285
     33 C         142.1426  139.2148  169.4509 C.ar    1  UNL1        0.1607
     34 F         142.6748  138.0750  170.2679 F       1  UNL1       -0.2025
     35 C         142.7254  139.5053  168.0995 C.ar    1  UNL1        0.0500
     36 C         142.1931  140.6451  167.2825 C.ar    1  UNL1        0.0824
@<TRIPOS>BOND
     1    11    12    2
     2    12    13    1
     3    13    14    1
     4    14    15    1
     5    15    16   ar
     6    16    17   ar
     7    17    18   ar
     8    18    10    1
     9    10     8    1
    10     1     8    1
    11     1     2    1
    12     2     3    1
    13     3     4    1
    14     4    23    1
    15    23    24    1
    16    24    25    1
    17    25    26   ar
    18    26    27    2
    19    26    28   ar
    20    28    29   ar
    21    29    30   ar
    22    30    31   ar
    23    31    32   ar
    24    32    33   ar
    25    33    34    1
    26    33    35   ar
    27    35    36   ar
    28     4     5    1
    29     5     6    1
    30     6     7    1
    31    18    19   ar
    32    19    20   ar
    33    20    21    1
    34    21    12   am
    35    20    15   ar
    36     6     1    1
    37    36    25   ar
    38    36    30   ar
    39     8     9    1
    40    21    22    1
@<TRIPOS>MOLECULE
*****
 36 40 0 0 0
SMALL
GASTEIGER

@<TRIPOS>ATOM
      1 C         144.1553  139.8375  163.3265 C.3     1  UNL1        0.0901
      2 C         144.0827  139.4111  164.7628 C.3     1  UNL1        0.0359
      3 C         142.8473  138.7387  165.2840 C.3     1  UNL1        0.0737
      4 N         141.6845  138.4927  164.3689 N.3     1  UNL1       -0.2687
      5 C         141.7571  138.9192  162.9326 C.3     1  UNL1        0.1092
      6 C         142.9925  139.5916  162.4114 C.3     1  UNL1        0.1911
      7 F         143.0650  140.0180  160.9752 F       1  UNL1       -0.2343
      8 N         145.3907  140.5099  162.8053 N.3     1  UNL1       -0.2913
      9 H         146.1863  140.0378  163.2349 H       1  UNL1        0.1236
     10 C         145.5918  141.9807  163.0210 C.3     1  UNL1        0.1152
     11 O         139.9328  145.6683  159.1316 O.2     1  UNL1       -0.2707
     12 C         140.6402  145.3665  160.4195 C.2     1  UNL1        0.2718
     13 C         140.1688  145.9921  161.6986 C.3     1  UNL1        0.2898
     14 O         140.8762  145.6903  162.9864 O.3     1  UNL1       -0.4628
     15 C         142.0551  144.7629  162.9951 C.ar    1  UNL1        0.1708
     16 C         142.7625  144.4612  164.2829 C.ar    1  UNL1        0.0411
     17 C         143.9414  143.5338  164.2915 C.ar    1  UNL1        0.0193
     18 C         144.4129  142.9081  163.0123 C.ar    1  UNL1        0.0765
     19 N         143.7055  143.2099  161.7245 N.ar    1  UNL1       -0.2304
     20 C         142.5265  144.1373  161.7159 C.ar    1  UNL1        0.1682
     21 N         141.8191  144.4391  160.4281 N.am    1  UNL1       -0.2639
     22 H         142.1285  144.0285  159.5885 H       1  UNL1        0.1565
     23 C         140.4491  137.8203  164.8901 C.3     1  UNL1        0.0970
     24 C         139.3917  138.6274  165.5833 C.3     1  UNL1        0.1264
     25 N         139.4978  140.1231  165.6267 N.ar    1  UNL1       -0.2926
     26 C         140.1498  140.7950  166.7986 C.ar    1  UNL1        0.2611
     27 O         140.6958  139.9712  167.9271 O.2     1  UNL1       -0.2670
     28 C         140.2559  142.2906  166.8421 C.ar    1  UNL1        0.0623
     29 C         139.7099  143.1143  165.7136 C.ar    1  UNL1        0.0255
     30 C         139.0578  142.4424  164.5417 C.ar    1  UNL1        0.0974
     31 N         138.5119  143.2660  163.4133 N.ar    1  UNL1       -0.2400
     32 C         137.8598  142.5941  162.2414 C.ar    1  UNL1        0.1285
     33 C         137.7537  141.0985  162.1979 C.ar    1  UNL1        0.1607
     34 F         137.1017  140.4266  161.0260 F       1  UNL1       -0.2025
     35 C         138.2997  140.2748  163.3264 C.ar    1  UNL1        0.0500
     36 C         138.9518  140.9467  164.4983 C.ar    1  UNL1        0.0824
@<TRIPOS>BOND
     1    11    12    2
     2    12    13    1
     3    13    14    1
     4    14    15    1
     5    15    16   ar
     6    16    17   ar
     7    17    18   ar
     8    18    10    1
     9    10     8    1
    10     1     8    1
    11     1     2    1
    12     2     3    1
    13     3     4    1
    14     4    23    1
    15    23    24    1
    16    24    25    1
    17    25    26   ar
    18    26    27    2
    19    26    28   ar
    20    28    29   ar
    21    29    30   ar
    22    30    31   ar
    23    31    32   ar
    24    32    33   ar
    25    33    34    1
    26    33    35   ar
    27    35    36   ar
    28     4     5    1
    29     5     6    1
    30     6     7    1
    31    18    19   ar
    32    19    20   ar
    33    20    21    1
    34    21    12   am
    35    20    15   ar
    36     6     1    1
    37    36    25   ar
    38    36    30   ar
    39     8     9    1
    40    21    22    1
@<TRIPOS>MOLECULE
*****
 36 40 0 0 0
SMALL
GASTEIGER

@<TRIPOS>ATOM
      1 C         138.2058  141.6502  164.6785 C.3     1  UNL1        0.0901
      2 C         138.9815  142.9334  164.6392 C.3     1  UNL1        0.0359
      3 C         140.1094  143.1579  165.6023 C.3     1  UNL1        0.0737
      4 N         140.4615  142.0991  166.6048 N.3     1  UNL1       -0.2687
      5 C         139.6857  140.8158  166.6441 C.3     1  UNL1        0.1092
      6 C         138.5579  140.5914  165.6810 C.3     1  UNL1        0.1911
      7 F         137.7822  139.3082  165.7203 F       1  UNL1       -0.2343
      8 N         137.0780  141.4258  163.7154 N.3     1  UNL1       -0.2913
      9 H         136.4879  140.6975  164.1175 H       1  UNL1        0.1236
     10 C         137.3691  141.0159  162.3020 C.3     1  UNL1        0.1152
     11 O         144.2840  139.7447  158.9379 O.2     1  UNL1       -0.2707
     12 C         143.1325  139.2556  159.7655 C.2     1  UNL1        0.2718
     13 C         143.1344  137.8538  160.2992 C.3     1  UNL1        0.2898
     14 O         141.9828  137.3648  161.1267 O.3     1  UNL1       -0.4628
     15 C         140.8294  138.2775  161.4205 C.ar    1  UNL1        0.1708
     16 C         139.6779  137.7885  162.2481 C.ar    1  UNL1        0.0411
     17 C         138.5244  138.7013  162.5419 C.ar    1  UNL1        0.0193
     18 C         138.5225  140.1032  162.0082 C.ar    1  UNL1        0.0765
     19 N         139.6740  140.5922  161.1807 N.ar    1  UNL1       -0.2304
     20 C         140.8275  139.6793  160.8868 C.ar    1  UNL1        0.1682
     21 N         141.9790  140.1684  160.0593 N.am    1  UNL1       -0.2639
     22 H         141.9778  141.0885  159.7090 H       1  UNL1        0.1565
     23 C         141.5892  142.3235  167.5680 C.3     1  UNL1        0.0970
     24 C         143.0025  142.0530  167.1442 C.3     1  UNL1        0.1264
     25 N         143.2741  141.2147  165.9302 N.ar    1  UNL1       -0.2926
     26 C         143.2056  139.7190  166.0211 C.ar    1  UNL1        0.2611
     27 O         142.8655  139.0617  167.3259 O.2     1  UNL1       -0.2670
     28 C         143.4771  138.8807  164.8073 C.ar    1  UNL1        0.0623
     29 C         143.8172  139.5380  163.5025 C.ar    1  UNL1        0.0255
     30 C         143.8857  141.0337  163.4117 C.ar    1  UNL1        0.0974
     31 N         144.2258  141.6910  162.1070 N.ar    1  UNL1       -0.2400
     32 C         144.2943  143.1867  162.0162 C.ar    1  UNL1        0.1285
     33 C         144.0227  144.0251  163.2300 C.ar    1  UNL1        0.1607
     34 F         144.0912  145.5207  163.1391 F       1  UNL1       -0.2025
     35 C         143.6826  143.3677  164.5347 C.ar    1  UNL1        0.0500
     36 C         143.6141  141.8720  164.6256 C.ar    1  UNL1        0.0824
@<TRIPOS>BOND
     1    11    12    2
     2    12    13    1
     3    13    14    1
     4    14    15    1
     5    15    16   ar
     6    16    17   ar
     7    17    18   ar
     8    18    10    1
     9    10     8    1
    10     1     8    1
    11     1     2    1
    12     2     3    1
    13     3     4    1
    14     4    23    1
    15    23    24    1
    16    24    25    1
    17    25    26   ar
    18    26    27    2
    19    26    28   ar
    20    28    29   ar
    21    29    30   ar
    22    30    31   ar
    23    31    32   ar
    24    32    33   ar
    25    33    34    1
    26    33    35   ar
    27    35    36   ar
    28     4     5    1
    29     5     6    1
    30     6     7    1
    31    18    19   ar
    32    19    20   ar
    33    20    21    1
    34    21    12   am
    35    20    15   ar
    36     6     1    1
    37    36    25   ar
    38    36    30   ar
    39     8     9    1
    40    21    22    1
@<TRIPOS>MOLECULE
*****
 36 40 0 0 0
SMALL
GASTEIGER

@<TRIPOS>ATOM
      1 C         139.5738  138.0301  162.4846 C.3     1  UNL1        0.0901
      2 C         139.2268  137.7353  163.9138 C.3     1  UNL1        0.0359
      3 C         140.2872  137.8037  164.9726 C.3     1  UNL1        0.0737
      4 N         141.6947  138.1668  164.6020 N.3     1  UNL1       -0.2687
      5 C         142.0416  138.4615  163.1727 C.3     1  UNL1        0.1092
      6 C         140.9812  138.3932  162.1141 C.3     1  UNL1        0.1911
      7 F         141.3282  138.6880  160.6849 F       1  UNL1       -0.2343
      8 N         138.5134  137.9618  161.4260 N.3     1  UNL1       -0.2913
      9 H         138.9951  137.8584  160.5329 H       1  UNL1        0.1236
     10 C         137.5404  139.0920  161.2649 C.3     1  UNL1        0.1152
     11 O         141.6261  145.5023  159.5430 O.2     1  UNL1       -0.2707
     12 C         140.6819  144.7677  160.4479 C.2     1  UNL1        0.2718
     13 C         140.1555  145.4352  161.6837 C.3     1  UNL1        0.2898
     14 O         139.2113  144.7006  162.5886 O.3     1  UNL1       -0.4628
     15 C         138.7936  143.2984  162.2577 C.ar    1  UNL1        0.1708
     16 C         137.8494  142.5638  163.1626 C.ar    1  UNL1        0.0411
     17 C         137.4316  141.1617  162.8317 C.ar    1  UNL1        0.0193
     18 C         137.9581  140.4941  161.5958 C.ar    1  UNL1        0.0765
     19 N         138.9023  141.2288  160.6909 N.ar    1  UNL1       -0.2304
     20 C         139.3200  142.6309  161.0219 C.ar    1  UNL1        0.1682
     21 N         140.2642  143.3656  160.1170 N.am    1  UNL1       -0.2639
     22 H         140.6098  142.9274  159.3059 H       1  UNL1        0.1565
     23 C         142.7551  138.2351  165.6606 C.3     1  UNL1        0.0970
     24 C         142.8422  139.4335  166.5586 C.3     1  UNL1        0.1264
     25 N         142.1736  140.7169  166.1636 N.ar    1  UNL1       -0.2926
     26 C         140.8181  141.0553  166.7096 C.ar    1  UNL1        0.2611
     27 O         140.1312  140.1103  167.6505 O.2     1  UNL1       -0.2670
     28 C         140.1495  142.3386  166.3146 C.ar    1  UNL1        0.0623
     29 C         140.8365  143.2836  165.3737 C.ar    1  UNL1        0.0255
     30 C         142.1920  142.9452  164.8278 C.ar    1  UNL1        0.0974
     31 N         142.8789  143.8901  163.8869 N.ar    1  UNL1       -0.2400
     32 C         144.2344  143.5516  163.3409 C.ar    1  UNL1        0.1285
     33 C         144.9030  142.2683  163.7359 C.ar    1  UNL1        0.1607
     34 F         146.2585  141.9299  163.1899 F       1  UNL1       -0.2025
     35 C         144.2161  141.3233  164.6768 C.ar    1  UNL1        0.0500
     36 C         142.8606  141.6618  165.2227 C.ar    1  UNL1        0.0824
@<TRIPOS>BOND
     1    11    12    2
     2    12    13    1
     3    13    14    1
     4    14    15    1
     5    15    16   ar
     6    16    17   ar
     7    17    18   ar
     8    18    10    1
     9    10     8    1
    10     1     8    1
    11     1     2    1
    12     2     3    1
    13     3     4    1
    14     4    23    1
    15    23    24    1
    16    24    25    1
    17    25    26   ar
    18    26    27    2
    19    26    28   ar
    20    28    29   ar
    21    29    30   ar
    22    30    31   ar
    23    31    32   ar
    24    32    33   ar
    25    33    34    1
    26    33    35   ar
    27    35    36   ar
    28     4     5    1
    29     5     6    1
    30     6     7    1
    31    18    19   ar
    32    19    20   ar
    33    20    21    1
    34    21    12   am
    35    20    15   ar
    36     6     1    1
    37    36    25   ar
    38    36    30   ar
    39     8     9    1
    40    21    22    1
@<TRIPOS>MOLECULE
*****
 36 40 0 0 0
SMALL
GASTEIGER

@<TRIPOS>ATOM
      1 C         144.3087  139.7853  163.4127 C.3     1  UNL1        0.0901
      2 C         143.9663  139.4528  164.8347 C.3     1  UNL1        0.0359
      3 C         142.7041  138.7050  165.1471 C.3     1  UNL1        0.0737
      4 N         141.7842  138.2897  164.0374 N.3     1  UNL1       -0.2687
      5 C         142.1267  138.6222  162.6153 C.3     1  UNL1        0.1092
      6 C         143.3889  139.3700  162.3030 C.3     1  UNL1        0.1911
      7 F         143.7313  139.7025  160.8810 F       1  UNL1       -0.2343
      8 N         145.5710  140.5330  163.1004 N.3     1  UNL1       -0.2913
      9 H         146.3254  140.0565  163.5945 H       1  UNL1        0.1236
     10 C         145.6832  141.9898  163.4400 C.3     1  UNL1        0.1152
     11 O         140.3864  145.3495  158.8134 O.2     1  UNL1       -0.2707
     12 C         140.9686  145.1343  160.1789 C.2     1  UNL1        0.2718
     13 C         140.3676  145.8237  161.3677 C.3     1  UNL1        0.2898
     14 O         140.9498  145.6085  162.7332 O.3     1  UNL1       -0.4628
     15 C         142.1332  144.7039  162.9099 C.ar    1  UNL1        0.1708
     16 C         142.7154  144.4886  164.2755 C.ar    1  UNL1        0.0411
     17 C         143.8988  143.5840  164.4521 C.ar    1  UNL1        0.0193
     18 C         144.4999  142.8945  163.2633 C.ar    1  UNL1        0.0765
     19 N         143.9176  143.1097  161.8978 N.ar    1  UNL1       -0.2304
     20 C         142.7342  144.0144  161.7211 C.ar    1  UNL1        0.1682
     21 N         142.1520  144.2297  160.3556 N.am    1  UNL1       -0.2639
     22 H         142.5465  143.7772  159.5753 H       1  UNL1        0.1565
     23 C         140.5220  137.5419  164.3497 C.3     1  UNL1        0.0970
     24 C         139.2779  138.2928  164.7212 C.3     1  UNL1        0.1264
     25 N         138.8218  139.4502  163.8829 N.ar    1  UNL1       -0.2926
     26 C         138.1617  139.2031  162.5588 C.ar    1  UNL1        0.2611
     27 O         137.9575  137.7987  162.0731 O.2     1  UNL1       -0.2670
     28 C         137.7057  140.3604  161.7206 C.ar    1  UNL1        0.0623
     29 C         137.9098  141.7648  162.2064 C.ar    1  UNL1        0.0255
     30 C         138.5700  142.0119  163.5304 C.ar    1  UNL1        0.0974
     31 N         138.7741  143.4163  164.0162 N.ar    1  UNL1       -0.2400
     32 C         139.4343  143.6634  165.3403 C.ar    1  UNL1        0.1285
     33 C         139.8903  142.5061  166.1785 C.ar    1  UNL1        0.1607
     34 F         140.5505  142.7532  167.5026 F       1  UNL1       -0.2025
     35 C         139.6862  141.1017  165.6928 C.ar    1  UNL1        0.0500
     36 C         139.0260  140.8546  164.3687 C.ar    1  UNL1        0.0824
@<TRIPOS>BOND
     1    11    12    2
     2    12    13    1
     3    13    14    1
     4    14    15    1
     5    15    16   ar
     6    16    17   ar
     7    17    18   ar
     8    18    10    1
     9    10     8    1
    10     1     8    1
    11     1     2    1
    12     2     3    1
    13     3     4    1
    14     4    23    1
    15    23    24    1
    16    24    25    1
    17    25    26   ar
    18    26    27    2
    19    26    28   ar
    20    28    29   ar
    21    29    30   ar
    22    30    31   ar
    23    31    32   ar
    24    32    33   ar
    25    33    34    1
    26    33    35   ar
    27    35    36   ar
    28     4     5    1
    29     5     6    1
    30     6     7    1
    31    18    19   ar
    32    19    20   ar
    33    20    21    1
    34    21    12   am
    35    20    15   ar
    36     6     1    1
    37    36    25   ar
    38    36    30   ar
    39     8     9    1
    40    21    22    1
@<TRIPOS>MOLECULE
*****
 36 40 0 0 0
SMALL
GASTEIGER

@<TRIPOS>ATOM
      1 C         138.3912  143.9507  162.8213 C.3     1  UNL1        0.0901
      2 C         138.0270  142.7432  162.0093 C.3     1  UNL1        0.0359
      3 C         137.8950  141.4047  162.6735 C.3     1  UNL1        0.0737
      4 N         138.1271  141.2737  164.1496 N.3     1  UNL1       -0.2687
      5 C         138.4913  142.4813  164.9616 C.3     1  UNL1        0.1092
      6 C         138.6234  143.8197  164.2974 C.3     1  UNL1        0.1911
      7 F         138.9875  145.0272  165.1094 F       1  UNL1       -0.2343
      8 N         138.5233  145.2891  162.1571 N.3     1  UNL1       -0.2913
      9 H         138.0554  145.2169  161.2536 H       1  UNL1        0.1236
     10 C         139.8832  145.8658  161.8957 C.3     1  UNL1        0.1152
     11 O         144.5064  139.6610  160.9600 O.2     1  UNL1       -0.2707
     12 C         144.1935  140.9555  161.6501 C.2     1  UNL1        0.2718
     13 C         145.1086  141.4763  162.7183 C.3     1  UNL1        0.2898
     14 O         144.7957  142.7709  163.4084 O.3     1  UNL1       -0.4628
     15 C         143.5676  143.5446  163.0303 C.ar    1  UNL1        0.1708
     16 C         143.2546  144.8391  163.7203 C.ar    1  UNL1        0.0411
     17 C         142.0265  145.6129  163.3422 C.ar    1  UNL1        0.0193
     18 C         141.1113  145.0920  162.2739 C.ar    1  UNL1        0.0765
     19 N         141.4242  143.7975  161.5838 N.ar    1  UNL1       -0.2304
     20 C         142.6524  143.0238  161.9620 C.ar    1  UNL1        0.1682
     21 N         142.9654  141.7292  161.2719 N.am    1  UNL1       -0.2639
     22 H         142.3647  141.3874  160.5708 H       1  UNL1        0.1565
     23 C         137.9950  139.9353  164.8137 C.3     1  UNL1        0.0970
     24 C         139.2217  139.1902  165.2498 C.3     1  UNL1        0.1264
     25 N         140.3729  139.9330  165.8606 N.ar    1  UNL1       -0.2926
     26 C         141.5562  140.3066  165.0178 C.ar    1  UNL1        0.2611
     27 O         141.5882  139.9375  163.5643 O.2     1  UNL1       -0.2670
     28 C         142.7074  141.0493  165.6286 C.ar    1  UNL1        0.0623
     29 C         142.6754  141.4184  167.0822 C.ar    1  UNL1        0.0255
     30 C         141.4921  141.0448  167.9249 C.ar    1  UNL1        0.0974
     31 N         141.4600  141.4139  169.3784 N.ar    1  UNL1       -0.2400
     32 C         140.2767  141.0402  170.2212 C.ar    1  UNL1        0.1285
     33 C         139.1255  140.2975  169.6104 C.ar    1  UNL1        0.1607
     34 F         137.9422  139.9239  170.4532 F       1  UNL1       -0.2025
     35 C         139.1575  139.9284  168.1569 C.ar    1  UNL1        0.0500
     36 C         140.3408  140.3020  167.3141 C.ar    1  UNL1        0.0824
@<TRIPOS>BOND
     1    11    12    2
     2    12    13    1
     3    13    14    1
     4    14    15    1
     5    15    16   ar
     6    16    17   ar
     7    17    18   ar
     8    18    10    1
     9    10     8    1
    10     1     8    1
    11     1     2    1
    12     2     3    1
    13     3     4    1
    14     4    23    1
    15    23    24    1
    16    24    25    1
    17    25    26   ar
    18    26    27    2
    19    26    28   ar
    20    28    29   ar
    21    29    30   ar
    22    30    31   ar
    23    31    32   ar
    24    32    33   ar
    25    33    34    1
    26    33    35   ar
    27    35    36   ar
    28     4     5    1
    29     5     6    1
    30     6     7    1
    31    18    19   ar
    32    19    20   ar
    33    20    21    1
    34    21    12   am
    35    20    15   ar
    36     6     1    1
    37    36    25   ar
    38    36    30   ar
    39     8     9    1
    40    21    22    1
