@<TRIPOS>MOLECULE
*****
 23 25 0 0 0
SMALL
GASTEIGER

@<TRIPOS>ATOM
      1 C         139.7456  142.5117  165.0482 C.3     1  UNL1        0.0977
      2 C         138.3396  142.4333  164.5313 C.3     1  UNL1        0.0233
      3 C         137.8117  143.8320  164.4101 C.3     1  UNL1        0.0189
      4 C         138.8913  144.7749  164.8520 C.3     1  UNL1        0.0689
      5 N         140.0865  143.9590  165.2464 N.3     1  UNL1       -0.2938
      6 H         140.3145  144.1299  166.2258 H       1  UNL1        0.1235
      7 C         141.1413  142.2774  165.5453 C.2     1  UNL1        0.1818
      8 O         142.2589  142.0609  164.5686 O.2     1  UNL1       -0.2903
      9 C         141.4193  142.2597  167.0193 C.2     1  UNL1        0.0183
     10 C         142.8322  142.1711  167.5150 C.2     1  UNL1        0.0005
     11 C         143.1102  142.1534  168.9890 C.2     1  UNL1        0.0204
     12 C         141.9752  142.2242  169.9671 C.2     1  UNL1        0.1007
     13 N         141.9412  142.2260  171.4667 N.2     1  UNL1       -0.1482
     14 N         140.5073  142.3158  171.8977 N.2     1  UNL1       -0.1467
     15 C         139.6550  142.3694  170.6645 C.2     1  UNL1        0.1197
     16 C         140.5622  142.3128  169.4713 C.2     1  UNL1        0.0226
     17 C         140.2843  142.3306  167.9974 C.3     1  UNL1        0.0588
     18 C         139.6965  141.0155  164.9539 C.3     1  UNL1        0.0219
     19 C         138.4868  140.2728  165.4387 C.3     1  UNL1        0.0018
     20 C         137.9541  138.8408  166.9103 C.3     1  UNL1        0.0000
     21 C         138.5082  138.7750  165.5180 C.3     1  UNL1        0.0001
     22 C         139.0623  138.7092  164.1256 C.3     1  UNL1        0.0000
     23 C         138.5295  137.2773  165.5973 C.3     1  UNL1        0.0000
@<TRIPOS>BOND
     1    20    21    1
     2    21    22    1
     3    21    23    1
     4    21    19    1
     5    19    18    1
     6    18     1    1
     7     1     7    1
     8     7     8    2
     9     7     9    1
    10     9    10    2
    11    10    11    1
    12    11    12    2
    13    12    13    1
    14    13    14    2
    15    14    15    1
    16    15    16    2
    17    16    17    1
    18     1     2    1
    19     2     3    1
    20     3     4    1
    21     4     5    1
    22     5     1    1
    23    17     9    1
    24    16    12    1
    25     5     6    1
@<TRIPOS>MOLECULE
*****
 23 25 0 0 0
SMALL
GASTEIGER

@<TRIPOS>ATOM
      1 C         143.2484  141.2264  165.1916 C.3     1  UNL1        0.0977
      2 C         143.9147  140.0184  164.6026 C.3     1  UNL1        0.0233
      3 C         145.1783  140.4674  163.9307 C.3     1  UNL1        0.0189
      4 C         145.2930  141.9529  164.1044 C.3     1  UNL1        0.0689
      5 N         144.1003  142.4220  164.8836 N.3     1  UNL1       -0.2938
      6 H         143.5676  143.0933  164.3304 H       1  UNL1        0.1235
      7 C         142.3654  142.2283  165.8747 C.2     1  UNL1        0.1818
      8 O         141.5650  143.2010  165.0605 O.2     1  UNL1       -0.2903
      9 C         142.2830  142.2573  167.3722 C.2     1  UNL1        0.0183
     10 C         143.5384  142.2468  168.1928 C.2     1  UNL1        0.0005
     11 C         143.4560  142.2759  169.6903 C.2     1  UNL1        0.0204
     12 C         142.1179  142.3154  170.3671 C.2     1  UNL1        0.1007
     13 N         141.7259  142.3498  171.8145 N.2     1  UNL1       -0.1482
     14 N         140.2281  142.3816  171.8884 N.2     1  UNL1       -0.1467
     15 C         139.6944  142.3668  170.4866 C.2     1  UNL1        0.1197
     16 C         140.8624  142.3259  169.5464 C.2     1  UNL1        0.0226
     17 C         140.9449  142.2969  168.0490 C.3     1  UNL1        0.0588
     18 C         142.2119  140.2402  165.6423 C.3     1  UNL1        0.0219
     19 C         141.8620  139.0695  164.7723 C.3     1  UNL1        0.0018
     20 C         140.0110  139.5462  165.6926 C.3     1  UNL1        0.0000
     21 C         140.5590  138.3526  164.9679 C.3     1  UNL1        0.0001
     22 C         141.1069  137.1590  164.2433 C.3     1  UNL1        0.0000
     23 C         139.2560  137.6357  165.1636 C.3     1  UNL1        0.0000
@<TRIPOS>BOND
     1    20    21    1
     2    21    22    1
     3    21    23    1
     4    21    19    1
     5    19    18    1
     6    18     1    1
     7     1     7    1
     8     7     8    2
     9     7     9    1
    10     9    10    2
    11    10    11    1
    12    11    12    2
    13    12    13    1
    14    13    14    2
    15    14    15    1
    16    15    16    2
    17    16    17    1
    18     1     2    1
    19     2     3    1
    20     3     4    1
    21     4     5    1
    22     5     1    1
    23    17     9    1
    24    16    12    1
    25     5     6    1
@<TRIPOS>MOLECULE
*****
 23 25 0 0 0
SMALL
GASTEIGER

@<TRIPOS>ATOM
      1 C         139.4681  142.5358  163.9430 C.3     1  UNL1        0.0977
      2 C         137.9918  142.7292  164.1256 C.3     1  UNL1        0.0233
      3 C         137.7729  144.0858  164.7268 C.3     1  UNL1        0.0189
      4 C         139.1138  144.7310  164.9157 C.3     1  UNL1        0.0689
      5 N         140.1615  143.7731  164.4314 N.3     1  UNL1       -0.2938
      6 H         140.7942  143.5365  165.1957 H       1  UNL1        0.1235
      7 C         140.8602  142.0632  163.6453 C.2     1  UNL1        0.1818
      8 O         141.5732  142.5546  162.4206 O.2     1  UNL1       -0.2903
      9 C         141.5393  141.0991  164.5725 C.2     1  UNL1        0.0183
     10 C         142.3333  139.9553  164.0150 C.2     1  UNL1        0.0005
     11 C         143.0124  138.9912  164.9422 C.2     1  UNL1        0.0204
     12 C         142.8972  139.1712  166.4269 C.2     1  UNL1        0.1007
     13 N         143.4523  138.3871  167.5789 N.2     1  UNL1       -0.1482
     14 N         143.0011  139.0465  168.8484 N.2     1  UNL1       -0.1467
     15 C         142.1673  140.2380  168.4810 C.2     1  UNL1        0.1197
     16 C         142.1031  140.3151  166.9844 C.2     1  UNL1        0.0226
     17 C         141.4241  141.2791  166.0572 C.3     1  UNL1        0.0588
     18 C         139.0657  141.1998  163.3924 C.3     1  UNL1        0.0219
     19 C         138.1192  140.3261  164.1610 C.3     1  UNL1        0.0018
     20 C         138.2526  139.4068  166.0682 C.3     1  UNL1        0.0000
     21 C         138.5741  138.9882  164.6641 C.3     1  UNL1        0.0001
     22 C         138.8956  138.5696  163.2600 C.3     1  UNL1        0.0000
     23 C         139.0290  137.6503  165.1671 C.3     1  UNL1        0.0000
@<TRIPOS>BOND
     1    20    21    1
     2    21    22    1
     3    21    23    1
     4    21    19    1
     5    19    18    1
     6    18     1    1
     7     1     7    1
     8     7     8    2
     9     7     9    1
    10     9    10    2
    11    10    11    1
    12    11    12    2
    13    12    13    1
    14    13    14    2
    15    14    15    1
    16    15    16    2
    17    16    17    1
    18     1     2    1
    19     2     3    1
    20     3     4    1
    21     4     5    1
    22     5     1    1
    23    17     9    1
    24    16    12    1
    25     5     6    1
@<TRIPOS>MOLECULE
*****
 23 25 0 0 0
SMALL
GASTEIGER

@<TRIPOS>ATOM
      1 C         140.3799  141.3381  167.6001 C.3     1  UNL1        0.0977
      2 C         139.5668  140.2555  168.2460 C.3     1  UNL1        0.0233
      3 C         139.3102  140.6548  169.6688 C.3     1  UNL1        0.0189
      4 C         139.9647  141.9841  169.9024 C.3     1  UNL1        0.0689
      5 N         140.6259  142.4064  168.6240 N.3     1  UNL1       -0.2938
      6 H         141.6286  142.5184  168.7734 H       1  UNL1        0.1235
      7 C         141.1764  142.2365  166.7011 C.2     1  UNL1        0.1818
      8 O         142.6622  142.3456  166.8751 O.2     1  UNL1       -0.2903
      9 C         140.4869  143.0259  165.6279 C.2     1  UNL1        0.0183
     10 C         139.3175  143.8994  165.9733 C.2     1  UNL1        0.0005
     11 C         138.6281  144.6888  164.9002 C.2     1  UNL1        0.0204
     12 C         139.1082  144.6046  163.4816 C.2     1  UNL1        0.1007
     13 N         138.6318  145.2618  162.2202 N.2     1  UNL1       -0.1482
     14 N         139.5069  144.7944  161.0951 N.2     1  UNL1       -0.1467
     15 C         140.5241  143.8484  161.6612 C.2     1  UNL1        0.1197
     16 C         140.2776  143.7311  163.1362 C.2     1  UNL1        0.0226
     17 C         140.9670  142.9418  164.2093 C.3     1  UNL1        0.0588
     18 C         140.3005  140.4576  166.3883 C.3     1  UNL1        0.0219
     19 C         139.0287  139.7268  166.0743 C.3     1  UNL1        0.0018
     20 C         139.3910  137.9457  164.9804 C.3     1  UNL1        0.0000
     21 C         138.7536  139.2683  164.6729 C.3     1  UNL1        0.0001
     22 C         138.1162  140.5908  164.3653 C.3     1  UNL1        0.0000
     23 C         138.4785  138.8098  163.2714 C.3     1  UNL1        0.0000
@<TRIPOS>BOND
     1    20    21    1
     2    21    22    1
     3    21    23    1
     4    21    19    1
     5    19    18    1
     6    18     1    1
     7     1     7    1
     8     7     8    2
     9     7     9    1
    10     9    10    2
    11    10    11    1
    12    11    12    2
    13    12    13    1
    14    13    14    2
    15    14    15    1
    16    15    16    2
    17    16    17    1
    18     1     2    1
    19     2     3    1
    20     3     4    1
    21     4     5    1
    22     5     1    1
    23    17     9    1
    24    16    12    1
    25     5     6    1
@<TRIPOS>MOLECULE
*****
 23 25 0 0 0
SMALL
GASTEIGER

@<TRIPOS>ATOM
      1 C         141.1176  141.1853  168.2231 C.3     1  UNL1        0.0977
      2 C         141.9824  142.4101  168.2690 C.3     1  UNL1        0.0233
      3 C         143.1612  142.1125  169.1474 C.3     1  UNL1        0.0189
      4 C         143.0251  140.7038  169.6443 C.3     1  UNL1        0.0689
      5 N         141.7620  140.1307  169.0731 N.3     1  UNL1       -0.2938
      6 H         141.1314  139.8617  169.8283 H       1  UNL1        0.1235
      7 C         140.0724  140.1351  167.9892 C.2     1  UNL1        0.1818
      8 O         139.1196  139.7675  169.0878 O.2     1  UNL1       -0.2903
      9 C         139.9801  139.4525  166.6566 C.2     1  UNL1        0.0183
     10 C         138.6391  139.0899  166.0910 C.2     1  UNL1        0.0005
     11 C         138.5469  138.4073  164.7584 C.2     1  UNL1        0.0204
     12 C         139.7957  138.0874  163.9916 C.2     1  UNL1        0.1007
     13 N         140.0164  137.4249  162.6641 N.2     1  UNL1       -0.1482
     14 N         141.4938  137.3781  162.4094 N.2     1  UNL1       -0.1467
     15 C         142.1863  138.0116  163.5794 C.2     1  UNL1        0.1197
     16 C         141.1368  138.4501  164.5573 C.2     1  UNL1        0.0226
     17 C         141.2290  139.1326  165.8899 C.3     1  UNL1        0.0588
     18 C         140.2547  142.0204  167.3241 C.3     1  UNL1        0.0219
     19 C         140.8819  142.8636  166.2539 C.3     1  UNL1        0.0018
     20 C         139.1310  142.6594  165.0737 C.3     1  UNL1        0.0000
     21 C         140.6048  142.5702  164.8092 C.3     1  UNL1        0.0001
     22 C         142.0785  142.4810  164.5446 C.3     1  UNL1        0.0000
     23 C         140.3276  142.2768  163.3645 C.3     1  UNL1        0.0000
@<TRIPOS>BOND
     1    20    21    1
     2    21    22    1
     3    21    23    1
     4    21    19    1
     5    19    18    1
     6    18     1    1
     7     1     7    1
     8     7     8    2
     9     7     9    1
    10     9    10    2
    11    10    11    1
    12    11    12    2
    13    12    13    1
    14    13    14    2
    15    14    15    1
    16    15    16    2
    17    16    17    1
    18     1     2    1
    19     2     3    1
    20     3     4    1
    21     4     5    1
    22     5     1    1
    23    17     9    1
    24    16    12    1
    25     5     6    1
@<TRIPOS>MOLECULE
*****
 23 25 0 0 0
SMALL
GASTEIGER

@<TRIPOS>ATOM
      1 C         143.0036  143.0131  164.8004 C.3     1  UNL1        0.0977
      2 C         144.0558  143.7693  164.0445 C.3     1  UNL1        0.0233
      3 C         143.4370  145.0347  163.5291 C.3     1  UNL1        0.0189
      4 C         142.0024  145.0607  163.9664 C.3     1  UNL1        0.0689
      5 N         141.7345  143.8114  164.7521 N.3     1  UNL1       -0.2938
      6 H         141.0006  143.2676  164.2980 H       1  UNL1        0.1235
      7 C         142.1807  142.0481  165.6013 C.2     1  UNL1        0.1818
      8 O         141.3787  140.9887  164.9054 O.2     1  UNL1       -0.2903
      9 C         142.1599  142.1425  167.0982 C.2     1  UNL1        0.0183
     10 C         143.4439  142.2978  167.8578 C.2     1  UNL1        0.0005
     11 C         143.4231  142.3923  169.3548 C.2     1  UNL1        0.0204
     12 C         142.1181  142.3313  170.0920 C.2     1  UNL1        0.1007
     13 N         141.7870  142.3977  171.5534 N.2     1  UNL1       -0.1482
     14 N         140.2983  142.2834  171.6970 N.2     1  UNL1       -0.1467
     15 C         139.7093  142.1463  170.3242 C.2     1  UNL1        0.1197
     16 C         140.8341  142.1760  169.3323 C.2     1  UNL1        0.0226
     17 C         140.8550  142.0815  167.8354 C.3     1  UNL1        0.0588
     18 C         144.1006  142.0132  165.0160 C.3     1  UNL1        0.0219
     19 C         144.8594  141.4675  163.8428 C.3     1  UNL1        0.0018
     20 C         144.6868  139.4785  164.5598 C.3     1  UNL1        0.0000
     21 C         144.4630  140.1530  163.2388 C.3     1  UNL1        0.0001
     22 C         144.2391  140.8275  161.9178 C.3     1  UNL1        0.0000
     23 C         144.0665  138.8385  162.6348 C.3     1  UNL1        0.0000
@<TRIPOS>BOND
     1    20    21    1
     2    21    22    1
     3    21    23    1
     4    21    19    1
     5    19    18    1
     6    18     1    1
     7     1     7    1
     8     7     8    2
     9     7     9    1
    10     9    10    2
    11    10    11    1
    12    11    12    2
    13    12    13    1
    14    13    14    2
    15    14    15    1
    16    15    16    2
    17    16    17    1
    18     1     2    1
    19     2     3    1
    20     3     4    1
    21     4     5    1
    22     5     1    1
    23    17     9    1
    24    16    12    1
    25     5     6    1
@<TRIPOS>MOLECULE
*****
 23 25 0 0 0
SMALL
GASTEIGER

@<TRIPOS>ATOM
      1 C         139.9538  139.1358  165.4772 C.3     1  UNL1        0.0977
      2 C         139.6254  137.8633  164.7539 C.3     1  UNL1        0.0233
      3 C         138.3963  137.2768  165.3824 C.3     1  UNL1        0.0189
      4 C         137.9650  138.1867  166.4941 C.3     1  UNL1        0.0689
      5 N         138.9275  139.3356  166.5527 N.3     1  UNL1       -0.2938
      6 H         139.3826  139.3597  167.4653 H       1  UNL1        0.1235
      7 C         140.5214  140.4226  165.9984 C.2     1  UNL1        0.1818
      8 O         140.7817  141.5625  165.0589 O.2     1  UNL1       -0.2903
      9 C         140.8288  140.5695  167.4593 C.2     1  UNL1        0.0183
     10 C         141.8643  139.6934  168.0996 C.2     1  UNL1        0.0005
     11 C         142.1716  139.8403  169.5605 C.2     1  UNL1        0.0204
     12 C         141.4434  140.8634  170.3809 C.2     1  UNL1        0.1007
     13 N         141.5322  141.2350  171.8314 N.2     1  UNL1       -0.1482
     14 N         140.5516  142.3408  172.0874 N.2     1  UNL1       -0.1467
     15 C         139.8567  142.6526  170.7952 C.2     1  UNL1        0.1197
     16 C         140.4078  141.7395  169.7405 C.2     1  UNL1        0.0226
     17 C         140.1005  141.5925  168.2797 C.3     1  UNL1        0.0588
     18 C         141.0987  139.2049  164.5106 C.3     1  UNL1        0.0219
     19 C         142.3065  138.3393  164.7153 C.3     1  UNL1        0.0018
     20 C         144.0538  138.3868  165.9173 C.3     1  UNL1        0.0000
     21 C         143.6807  138.9218  164.5666 C.3     1  UNL1        0.0001
     22 C         143.3077  139.4568  163.2158 C.3     1  UNL1        0.0000
     23 C         145.0550  139.5043  164.4178 C.3     1  UNL1        0.0000
@<TRIPOS>BOND
     1    20    21    1
     2    21    22    1
     3    21    23    1
     4    21    19    1
     5    19    18    1
     6    18     1    1
     7     1     7    1
     8     7     8    2
     9     7     9    1
    10     9    10    2
    11    10    11    1
    12    11    12    2
    13    12    13    1
    14    13    14    2
    15    14    15    1
    16    15    16    2
    17    16    17    1
    18     1     2    1
    19     2     3    1
    20     3     4    1
    21     4     5    1
    22     5     1    1
    23    17     9    1
    24    16    12    1
    25     5     6    1
@<TRIPOS>MOLECULE
*****
 23 25 0 0 0
SMALL
GASTEIGER

@<TRIPOS>ATOM
      1 C         143.2717  140.6690  165.4103 C.3     1  UNL1        0.0977
      2 C         143.6108  139.2212  165.2124 C.3     1  UNL1        0.0233
      3 C         144.7675  139.1420  164.2608 C.3     1  UNL1        0.0189
      4 C         145.1433  140.5407  163.8706 C.3     1  UNL1        0.0689
      5 N         144.2189  141.4845  164.5810 N.3     1  UNL1       -0.2938
      6 H         143.6965  142.0355  163.8999 H       1  UNL1        0.1235
      7 C         142.7101  142.0046  165.7985 C.2     1  UNL1        0.1818
      8 O         143.4129  142.8446  166.8233 O.2     1  UNL1       -0.2903
      9 C         141.4455  142.5002  165.1617 C.2     1  UNL1        0.0183
     10 C         140.4178  143.2125  165.9902 C.2     1  UNL1        0.0005
     11 C         139.1533  143.7081  165.3534 C.2     1  UNL1        0.0204
     12 C         138.9166  143.4913  163.8881 C.2     1  UNL1        0.1007
     13 N         137.7746  143.8646  162.9900 N.2     1  UNL1       -0.1482
     14 N         138.0967  143.3829  161.6064 N.2     1  UNL1       -0.1467
     15 C         139.4376  142.7120  161.6495 C.2     1  UNL1        0.1197
     16 C         139.9443  142.7790  163.0597 C.2     1  UNL1        0.0226
     17 C         141.2088  142.2835  163.6965 C.3     1  UNL1        0.0588
     18 C         142.2070  140.1327  166.3208 C.3     1  UNL1        0.0219
     19 C         141.2657  139.0724  165.8312 C.3     1  UNL1        0.0018
     20 C         139.7735  139.8202  167.1404 C.3     1  UNL1        0.0000
     21 C         139.8002  139.3682  165.7104 C.3     1  UNL1        0.0001
     22 C         139.8268  138.9163  164.2803 C.3     1  UNL1        0.0000
     23 C         138.3346  139.6640  165.5896 C.3     1  UNL1        0.0000
@<TRIPOS>BOND
     1    20    21    1
     2    21    22    1
     3    21    23    1
     4    21    19    1
     5    19    18    1
     6    18     1    1
     7     1     7    1
     8     7     8    2
     9     7     9    1
    10     9    10    2
    11    10    11    1
    12    11    12    2
    13    12    13    1
    14    13    14    2
    15    14    15    1
    16    15    16    2
    17    16    17    1
    18     1     2    1
    19     2     3    1
    20     3     4    1
    21     4     5    1
    22     5     1    1
    23    17     9    1
    24    16    12    1
    25     5     6    1
@<TRIPOS>MOLECULE
*****
 23 25 0 0 0
SMALL
GASTEIGER

@<TRIPOS>ATOM
      1 C         143.4565  140.5244  164.9225 C.3     1  UNL1        0.0977
      2 C         144.5755  139.9440  164.1093 C.3     1  UNL1        0.0233
      3 C         145.5280  141.0529  163.7736 C.3     1  UNL1        0.0189
      4 C         144.9979  142.3187  164.3791 C.3     1  UNL1        0.0689
      5 N         143.7176  141.9921  165.0892 N.3     1  UNL1       -0.2938
      6 H         142.9505  142.5284  164.6839 H       1  UNL1        0.1235
      7 C         142.2294  140.8106  165.7363 C.2     1  UNL1        0.1818
      8 O         142.3139  140.8471  167.2333 O.2     1  UNL1       -0.2903
      9 C         140.9176  141.0603  165.0528 C.2     1  UNL1        0.0183
     10 C         139.6614  140.4434  165.5923 C.2     1  UNL1        0.0005
     11 C         138.3496  140.6931  164.9088 C.2     1  UNL1        0.0204
     12 C         138.2943  141.5597  163.6858 C.2     1  UNL1        0.1007
     13 N         137.1554  141.9821  162.8057 N.2     1  UNL1       -0.1482
     14 N         137.7079  142.8600  161.7222 N.2     1  UNL1       -0.1467
     15 C         139.1882  142.9803  161.9327 C.2     1  UNL1        0.1197
     16 C         139.5506  142.1767  163.1463 C.2     1  UNL1        0.0226
     17 C         140.8623  141.9270  163.8297 C.3     1  UNL1        0.0588
     18 C         142.9388  139.1166  164.9259 C.3     1  UNL1        0.0219
     19 C         142.7095  138.3987  163.6289 C.3     1  UNL1        0.0018
     20 C         141.4620  138.8174  161.9650 C.3     1  UNL1        0.0000
     21 C         141.3187  138.0113  163.2219 C.3     1  UNL1        0.0001
     22 C         141.1754  137.2052  164.4787 C.3     1  UNL1        0.0000
     23 C         139.9279  137.6239  162.8148 C.3     1  UNL1        0.0000
@<TRIPOS>BOND
     1    20    21    1
     2    21    22    1
     3    21    23    1
     4    21    19    1
     5    19    18    1
     6    18     1    1
     7     1     7    1
     8     7     8    2
     9     7     9    1
    10     9    10    2
    11    10    11    1
    12    11    12    2
    13    12    13    1
    14    13    14    2
    15    14    15    1
    16    15    16    2
    17    16    17    1
    18     1     2    1
    19     2     3    1
    20     3     4    1
    21     4     5    1
    22     5     1    1
    23    17     9    1
    24    16    12    1
    25     5     6    1
