@<TRIPOS>MOLECULE
*****
 38 41 0 0 0
SMALL
GASTEIGER

@<TRIPOS>ATOM
      1 C         141.6304  139.2667  161.7673 C.ar    1  UNL1        0.0674
      2 C         141.4514  137.7819  161.8821 C.ar    1  UNL1        0.1133
      3 N         140.5881  137.2124  162.9685 N.ar    1  UNL1       -0.2425
      4 C         139.9039  138.1277  163.9402 C.ar    1  UNL1        0.0825
      5 C         139.0406  137.5582  165.0266 C.ar    1  UNL1        0.0230
      6 C         138.3564  138.4735  165.9983 C.ar    1  UNL1        0.0741
      7 C         138.5355  139.9584  165.8834 C.ar    1  UNL1        0.0183
      8 C         139.3988  140.5279  164.7970 C.ar    1  UNL1        0.0463
      9 C         140.0830  139.6126  163.8253 C.ar    1  UNL1        0.0320
     10 C         140.9462  140.1820  162.7389 C.ar    1  UNL1        0.0188
     11 C         145.0836  141.5450  157.4215 C.2     1  UNL1        0.2416
     12 O         145.9385  142.7467  157.6953 O.2     1  UNL1       -0.2734
     13 N         144.2203  140.9754  158.5079 N.am    1  UNL1       -0.2749
     14 C         143.3654  139.7737  158.2341 C.3     1  UNL1        0.1149
     15 C         142.5021  139.2041  159.3206 C.3     1  UNL1        0.1124
     16 N         142.4937  139.8363  160.6808 N.pl3   1  UNL1       -0.3028
     17 C         143.3486  141.0380  160.9546 C.3     1  UNL1        0.1124
     18 C         144.2119  141.6076  159.8682 C.3     1  UNL1        0.1149
     19 N         145.8873  139.6643  155.8194 N.3     1  UNL1       -0.3135
     20 C         145.0919  140.9129  156.0613 C.3     1  UNL1        0.1517
     21 H         145.7794  139.3754  154.8471 H       1  UNL1        0.1193
     22 H         145.5512  138.9226  156.4337 H       1  UNL1        0.1193
     23 C         137.4931  137.9040  167.0847 C.3     1  UNL1        0.4187
     24 F         136.6298  137.3344  168.1712 F       1  UNL1       -0.1659
     25 F         137.4694  136.5835  166.3737 F       1  UNL1       -0.1659
     26 F         137.5168  139.2245  167.7957 F       1  UNL1       -0.1659
     27 N         139.5778  142.0127  164.6821 N.pl3   1  UNL1       -0.3290
     28 H         138.9482  142.5442  164.1434 H       1  UNL1        0.1471
     29 C         140.7162  142.6877  165.3882 C.3     1  UNL1        0.1145
     30 C         141.1569  142.2004  166.7367 C.ar    1  UNL1        0.0035
     31 C         142.1867  141.1149  166.8421 C.ar    1  UNL1       -0.0022
     32 C         142.6275  140.6276  168.1905 C.ar    1  UNL1        0.0060
     33 C         142.0385  141.2258  169.4336 C.ar    1  UNL1        0.0752
     34 C         141.0087  142.3114  169.3282 C.ar    1  UNL1        0.2898
     35 C         140.5679  142.7987  167.9797 C.ar    1  UNL1        0.0727
     36 N         140.4197  142.9096  170.5712 N.pl3   1  UNL1        0.0809
     37 O         140.4557  142.1452  171.8613 O.2     1  UNL1        0.0415
     38 O         139.7946  144.2723  170.5241 O.co2   1  UNL1       -0.5760
@<TRIPOS>UNITY_ATOM_ATTR
36 1
charge 1
38 1
charge -1
@<TRIPOS>BOND
     1    19    20    1
     2    20    11    1
     3    11    12    2
     4    11    13   am
     5    13    14    1
     6    14    15    1
     7    15    16    1
     8    16     1    1
     9     1     2   ar
    10     2     3   ar
    11     3     4   ar
    12     4     5   ar
    13     5     6   ar
    14     6    23    1
    15    23    24    1
    16    23    25    1
    17    23    26    1
    18     6     7   ar
    19     7     8   ar
    20     8    27    1
    21    27    29    1
    22    29    30    1
    23    30    31   ar
    24    31    32   ar
    25    32    33   ar
    26    33    34   ar
    27    34    36    1
    28    36    37    2
    29    36    38    1
    30    34    35   ar
    31     8     9   ar
    32     9    10   ar
    33    16    17    1
    34    17    18    1
    35    18    13    1
    36    10     1   ar
    37     9     4   ar
    38    35    30   ar
    39    19    21    1
    40    19    22    1
    41    27    28    1
@<TRIPOS>MOLECULE
*****
 38 41 0 0 0
SMALL
GASTEIGER

@<TRIPOS>ATOM
      1 C         141.6760  139.0702  161.6913 C.ar    1  UNL1        0.0674
      2 C         141.8038  137.6336  162.1032 C.ar    1  UNL1        0.1133
      3 N         140.9922  137.1070  163.2494 N.ar    1  UNL1       -0.2425
      4 C         140.0527  138.0169  163.9837 C.ar    1  UNL1        0.0825
      5 C         139.2410  137.4902  165.1299 C.ar    1  UNL1        0.0230
      6 C         138.3014  138.4002  165.8642 C.ar    1  UNL1        0.0741
      7 C         138.1736  139.8369  165.4523 C.ar    1  UNL1        0.0183
      8 C         138.9853  140.3636  164.3061 C.ar    1  UNL1        0.0463
      9 C         139.9248  139.4536  163.5718 C.ar    1  UNL1        0.0320
     10 C         140.7364  139.9802  162.4256 C.ar    1  UNL1        0.0188
     11 C         144.9227  141.1771  157.1065 C.2     1  UNL1        0.2416
     12 O         145.6772  142.4654  157.2513 O.2     1  UNL1       -0.2734
     13 N         144.1110  140.6504  158.2526 N.am    1  UNL1       -0.2749
     14 C         143.3565  139.3621  158.1078 C.3     1  UNL1        0.1149
     15 C         142.5448  138.8354  159.2541 C.3     1  UNL1        0.1124
     16 N         142.4877  139.5970  160.5450 N.pl3   1  UNL1       -0.3028
     17 C         143.2422  140.8853  160.6899 C.3     1  UNL1        0.1124
     18 C         144.0538  141.4120  159.5437 C.3     1  UNL1        0.1149
     19 N         145.7434  139.1268  155.7381 N.3     1  UNL1       -0.3135
     20 C         144.9798  140.4156  155.8155 C.3     1  UNL1        0.1517
     21 H         145.6762  138.7479  154.7935 H       1  UNL1        0.1193
     22 H         145.3507  138.4586  156.4012 H       1  UNL1        0.1193
     23 C         137.4898  137.8736  167.0104 C.3     1  UNL1        0.4187
     24 F         136.6781  137.3469  168.1567 F       1  UNL1       -0.1659
     25 F         137.4984  139.2342  167.6417 F       1  UNL1       -0.1659
     26 F         137.4812  136.5129  166.3792 F       1  UNL1       -0.1659
     27 N         138.8574  141.8002  163.8942 N.pl3   1  UNL1       -0.3290
     28 H         138.3327  142.0386  163.0961 H       1  UNL1        0.1471
     29 C         139.5290  142.8736  164.6984 C.3     1  UNL1        0.1145
     30 C         140.9911  142.7685  165.0166 C.ar    1  UNL1        0.0035
     31 C         141.4324  142.3828  166.3973 C.ar    1  UNL1       -0.0022
     32 C         142.8945  142.2778  166.7155 C.ar    1  UNL1        0.0060
     33 C         143.9154  142.5584  165.6528 C.ar    1  UNL1        0.0752
     34 C         143.4741  142.9441  164.2721 C.ar    1  UNL1        0.2898
     35 C         142.0119  143.0492  163.9540 C.ar    1  UNL1        0.0727
     36 N         144.4949  143.2248  163.2095 N.pl3   1  UNL1        0.0809
     37 O         144.4426  144.5116  162.4405 O.2     1  UNL1        0.0415
     38 O         145.5679  142.2186  162.9159 O.co2   1  UNL1       -0.5760
@<TRIPOS>UNITY_ATOM_ATTR
36 1
charge 1
38 1
charge -1
@<TRIPOS>BOND
     1    19    20    1
     2    20    11    1
     3    11    12    2
     4    11    13   am
     5    13    14    1
     6    14    15    1
     7    15    16    1
     8    16     1    1
     9     1     2   ar
    10     2     3   ar
    11     3     4   ar
    12     4     5   ar
    13     5     6   ar
    14     6    23    1
    15    23    24    1
    16    23    25    1
    17    23    26    1
    18     6     7   ar
    19     7     8   ar
    20     8    27    1
    21    27    29    1
    22    29    30    1
    23    30    31   ar
    24    31    32   ar
    25    32    33   ar
    26    33    34   ar
    27    34    36    1
    28    36    37    2
    29    36    38    1
    30    34    35   ar
    31     8     9   ar
    32     9    10   ar
    33    16    17    1
    34    17    18    1
    35    18    13    1
    36    10     1   ar
    37     9     4   ar
    38    35    30   ar
    39    19    21    1
    40    19    22    1
    41    27    28    1
@<TRIPOS>MOLECULE
*****
 38 41 0 0 0
SMALL
GASTEIGER

@<TRIPOS>ATOM
      1 C         142.4764  142.1311  164.4620 C.ar    1  UNL1        0.0674
      2 C         143.5952  141.8474  163.5041 C.ar    1  UNL1        0.1133
      3 N         143.5762  142.4480  162.1298 N.ar    1  UNL1       -0.2425
      4 C         142.4384  143.3322  161.7133 C.ar    1  UNL1        0.0825
      5 C         142.4194  143.9327  160.3388 C.ar    1  UNL1        0.0230
      6 C         141.2816  144.8169  159.9223 C.ar    1  UNL1        0.0741
      7 C         140.1627  145.1006  160.8803 C.ar    1  UNL1        0.0183
      8 C         140.1817  144.5001  162.2547 C.ar    1  UNL1        0.0463
      9 C         141.3195  143.6159  162.6712 C.ar    1  UNL1        0.0320
     10 C         141.3385  143.0154  164.0456 C.ar    1  UNL1        0.0188
     11 C         142.5522  139.7290  169.9597 C.2     1  UNL1        0.2416
     12 O         142.8859  138.2776  170.1395 O.2     1  UNL1       -0.2734
     13 N         142.5332  140.3295  168.5853 N.am    1  UNL1       -0.2749
     14 C         142.1996  141.7808  168.4056 C.3     1  UNL1        0.1149
     15 C         142.1806  142.3814  167.0311 C.3     1  UNL1        0.1124
     16 N         142.4953  141.5306  165.8365 N.pl3   1  UNL1       -0.3028
     17 C         142.8290  140.0793  166.0163 C.3     1  UNL1        0.1124
     18 C         142.8480  139.4787  167.3907 C.3     1  UNL1        0.1149
     19 N         140.8584  140.5634  171.7444 N.3     1  UNL1       -0.3135
     20 C         142.2375  140.5797  171.1543 C.3     1  UNL1        0.1517
     21 H         140.8233  141.1956  172.5441 H       1  UNL1        0.1193
     22 H         140.6301  139.6171  172.0488 H       1  UNL1        0.1193
     23 C         141.2626  145.4175  158.5480 C.3     1  UNL1        0.4187
     24 F         141.2436  146.0180  157.1735 F       1  UNL1       -0.1659
     25 F         139.9433  146.0645  158.8489 F       1  UNL1       -0.1659
     26 F         142.5819  144.7704  158.2470 F       1  UNL1       -0.1659
     27 N         139.0628  144.7838  163.2126 N.pl3   1  UNL1       -0.3290
     28 H         139.1460  145.5181  163.8631 H       1  UNL1        0.1471
     29 C         137.8172  143.9487  163.1795 C.3     1  UNL1        0.1145
     30 C         137.9112  142.4566  163.3014 C.ar    1  UNL1        0.0035
     31 C         137.8423  141.5979  162.0733 C.ar    1  UNL1       -0.0022
     32 C         137.9363  140.1059  162.1952 C.ar    1  UNL1        0.0060
     33 C         138.0991  139.4724  163.5451 C.ar    1  UNL1        0.0752
     34 C         138.1680  140.3310  164.7731 C.ar    1  UNL1        0.2898
     35 C         138.0741  141.8231  164.6512 C.ar    1  UNL1        0.0727
     36 N         138.3309  139.6975  166.1230 N.pl3   1  UNL1        0.0809
     37 O         139.3869  140.1975  167.0636 O.2     1  UNL1        0.0415
     38 O         137.4377  138.5641  166.5322 O.co2   1  UNL1       -0.5760
@<TRIPOS>UNITY_ATOM_ATTR
36 1
charge 1
38 1
charge -1
@<TRIPOS>BOND
     1    19    20    1
     2    20    11    1
     3    11    12    2
     4    11    13   am
     5    13    14    1
     6    14    15    1
     7    15    16    1
     8    16     1    1
     9     1     2   ar
    10     2     3   ar
    11     3     4   ar
    12     4     5   ar
    13     5     6   ar
    14     6    23    1
    15    23    24    1
    16    23    25    1
    17    23    26    1
    18     6     7   ar
    19     7     8   ar
    20     8    27    1
    21    27    29    1
    22    29    30    1
    23    30    31   ar
    24    31    32   ar
    25    32    33   ar
    26    33    34   ar
    27    34    36    1
    28    36    37    2
    29    36    38    1
    30    34    35   ar
    31     8     9   ar
    32     9    10   ar
    33    16    17    1
    34    17    18    1
    35    18    13    1
    36    10     1   ar
    37     9     4   ar
    38    35    30   ar
    39    19    21    1
    40    19    22    1
    41    27    28    1
@<TRIPOS>MOLECULE
*****
 38 41 0 0 0
SMALL
GASTEIGER

@<TRIPOS>ATOM
      1 C         141.7420  138.8151  162.6405 C.ar    1  UNL1        0.0674
      2 C         141.5075  137.6971  163.6127 C.ar    1  UNL1        0.1133
      3 N         141.6905  137.9311  165.0829 N.ar    1  UNL1       -0.2425
      4 C         142.1081  139.2829  165.5810 C.ar    1  UNL1        0.0825
      5 C         142.2912  139.5168  167.0514 C.ar    1  UNL1        0.0230
      6 C         142.7088  140.8687  167.5495 C.ar    1  UNL1        0.0741
      7 C         142.9434  141.9866  166.5772 C.ar    1  UNL1        0.0183
      8 C         142.7603  141.7527  165.1069 C.ar    1  UNL1        0.0463
      9 C         142.3427  140.4008  164.6089 C.ar    1  UNL1        0.0320
     10 C         142.1596  140.1669  163.1386 C.ar    1  UNL1        0.0188
     11 C         141.0099  137.8795  156.7592 C.2     1  UNL1        0.2416
     12 O         142.1881  137.5149  155.9054 O.2     1  UNL1       -0.2734
     13 N         141.1929  138.1134  158.2295 N.am    1  UNL1       -0.2749
     14 C         140.0148  138.4780  159.0833 C.3     1  UNL1        0.1149
     15 C         140.1978  138.7119  160.5537 C.3     1  UNL1        0.1124
     16 N         141.5590  138.5812  161.1701 N.pl3   1  UNL1       -0.3028
     17 C         142.7372  138.2166  160.3163 C.3     1  UNL1        0.1124
     18 C         142.5542  137.9827  158.8461 C.3     1  UNL1        0.1149
     19 N         138.7687  136.8032  156.0051 N.3     1  UNL1       -0.3135
     20 C         139.6488  138.0102  156.1428 C.3     1  UNL1        0.1517
     21 H         137.8873  137.0732  155.5685 H       1  UNL1        0.1193
     22 H         138.5845  136.4097  156.9279 H       1  UNL1        0.1193
     23 C         142.8919  141.1026  169.0197 C.3     1  UNL1        0.4187
     24 F         143.0749  141.3366  170.4901 F       1  UNL1       -0.1659
     25 F         143.6407  142.3684  168.7251 F       1  UNL1       -0.1659
     26 F         142.1430  139.8368  169.3144 F       1  UNL1       -0.1659
     27 N         142.9949  142.8706  164.1348 N.pl3   1  UNL1       -0.3290
     28 H         143.7158  142.8000  163.4680 H       1  UNL1        0.1471
     29 C         142.1311  144.0962  164.1784 C.3     1  UNL1        0.1145
     30 C         140.6458  143.9733  164.0078 C.ar    1  UNL1        0.0035
     31 C         139.7219  144.5688  165.0285 C.ar    1  UNL1       -0.0022
     32 C         138.2367  144.4460  164.8579 C.ar    1  UNL1        0.0060
     33 C         137.6754  143.7277  163.6667 C.ar    1  UNL1        0.0752
     34 C         138.5993  143.1322  162.6461 C.ar    1  UNL1        0.2898
     35 C         140.0846  143.2550  162.8166 C.ar    1  UNL1        0.0727
     36 N         138.0381  142.4139  161.4549 N.pl3   1  UNL1        0.0809
     37 O         137.3148  141.1123  161.6361 O.2     1  UNL1        0.0415
     38 O         138.2001  142.9971  160.0825 O.co2   1  UNL1       -0.5760
@<TRIPOS>UNITY_ATOM_ATTR
36 1
charge 1
38 1
charge -1
@<TRIPOS>BOND
     1    19    20    1
     2    20    11    1
     3    11    12    2
     4    11    13   am
     5    13    14    1
     6    14    15    1
     7    15    16    1
     8    16     1    1
     9     1     2   ar
    10     2     3   ar
    11     3     4   ar
    12     4     5   ar
    13     5     6   ar
    14     6    23    1
    15    23    24    1
    16    23    25    1
    17    23    26    1
    18     6     7   ar
    19     7     8   ar
    20     8    27    1
    21    27    29    1
    22    29    30    1
    23    30    31   ar
    24    31    32   ar
    25    32    33   ar
    26    33    34   ar
    27    34    36    1
    28    36    37    2
    29    36    38    1
    30    34    35   ar
    31     8     9   ar
    32     9    10   ar
    33    16    17    1
    34    17    18    1
    35    18    13    1
    36    10     1   ar
    37     9     4   ar
    38    35    30   ar
    39    19    21    1
    40    19    22    1
    41    27    28    1
@<TRIPOS>MOLECULE
*****
 38 41 0 0 0
SMALL
GASTEIGER

@<TRIPOS>ATOM
      1 C         142.0853  143.7328  161.8233 C.ar    1  UNL1        0.0674
      2 C         143.5157  143.3541  162.0691 C.ar    1  UNL1        0.1133
      3 N         143.9264  142.7988  163.4006 N.ar    1  UNL1       -0.2425
      4 C         142.9066  142.6223  164.4864 C.ar    1  UNL1        0.0825
      5 C         143.3174  142.0670  165.8180 C.ar    1  UNL1        0.0230
      6 C         142.2976  141.8905  166.9038 C.ar    1  UNL1        0.0741
      7 C         140.8671  142.2692  166.6580 C.ar    1  UNL1        0.0183
      8 C         140.4565  142.8245  165.3264 C.ar    1  UNL1        0.0463
      9 C         141.4762  143.0010  164.2406 C.ar    1  UNL1        0.0320
     10 C         141.0656  143.5563  162.9091 C.ar    1  UNL1        0.0188
     11 C         140.4425  145.9538  156.4971 C.2     1  UNL1        0.2416
     12 O         141.1317  145.4924  155.2473 O.2     1  UNL1       -0.2734
     13 N         140.8532  145.3986  157.8286 N.am    1  UNL1       -0.2749
     14 C         140.1640  145.8600  159.0785 C.3     1  UNL1        0.1149
     15 C         140.5747  145.3047  160.4101 C.3     1  UNL1        0.1124
     16 N         141.6746  144.2881  160.4918 N.pl3   1  UNL1       -0.3028
     17 C         142.3638  143.8267  159.2419 C.3     1  UNL1        0.1124
     18 C         141.9531  144.3819  157.9104 C.3     1  UNL1        0.1149
     19 N         138.3485  146.9114  155.2937 N.3     1  UNL1       -0.3135
     20 C         139.3427  146.9705  156.4154 C.3     1  UNL1        0.1517
     21 H         137.6769  147.6725  155.3942 H       1  UNL1        0.1193
     22 H         137.8568  146.0181  155.3219 H       1  UNL1        0.1193
     23 C         142.7083  141.3352  168.2353 C.3     1  UNL1        0.4187
     24 F         143.1190  140.7800  169.5669 F       1  UNL1       -0.1659
     25 F         143.6624  142.4781  168.4176 F       1  UNL1       -0.1659
     26 F         141.7541  140.1923  168.0529 F       1  UNL1       -0.1659
     27 N         139.0260  143.2032  165.0807 N.pl3   1  UNL1       -0.3290
     28 H         138.7160  144.1148  165.2859 H       1  UNL1        0.1471
     29 C         138.0680  142.1930  164.5223 C.3     1  UNL1        0.1145
     30 C         138.3986  140.7312  164.5851 C.ar    1  UNL1        0.0035
     31 C         138.1652  139.9633  165.8523 C.ar    1  UNL1       -0.0022
     32 C         138.4957  138.5015  165.9151 C.ar    1  UNL1        0.0060
     33 C         139.0596  137.8076  164.7106 C.ar    1  UNL1        0.0752
     34 C         139.2929  138.5755  163.4434 C.ar    1  UNL1        0.2898
     35 C         138.9624  140.0374  163.3807 C.ar    1  UNL1        0.0727
     36 N         139.8568  137.8817  162.2390 N.pl3   1  UNL1        0.0809
     37 O         141.1535  137.1349  162.3422 O.2     1  UNL1        0.0415
     38 O         139.1238  137.9346  160.9314 O.co2   1  UNL1       -0.5760
@<TRIPOS>UNITY_ATOM_ATTR
36 1
charge 1
38 1
charge -1
@<TRIPOS>BOND
     1    19    20    1
     2    20    11    1
     3    11    12    2
     4    11    13   am
     5    13    14    1
     6    14    15    1
     7    15    16    1
     8    16     1    1
     9     1     2   ar
    10     2     3   ar
    11     3     4   ar
    12     4     5   ar
    13     5     6   ar
    14     6    23    1
    15    23    24    1
    16    23    25    1
    17    23    26    1
    18     6     7   ar
    19     7     8   ar
    20     8    27    1
    21    27    29    1
    22    29    30    1
    23    30    31   ar
    24    31    32   ar
    25    32    33   ar
    26    33    34   ar
    27    34    36    1
    28    36    37    2
    29    36    38    1
    30    34    35   ar
    31     8     9   ar
    32     9    10   ar
    33    16    17    1
    34    17    18    1
    35    18    13    1
    36    10     1   ar
    37     9     4   ar
    38    35    30   ar
    39    19    21    1
    40    19    22    1
    41    27    28    1
@<TRIPOS>MOLECULE
*****
 38 41 0 0 0
SMALL
GASTEIGER

@<TRIPOS>ATOM
      1 C         141.7218  139.3728  164.4979 C.ar    1  UNL1        0.0674
      2 C         143.1843  139.1460  164.2534 C.ar    1  UNL1        0.1133
      3 N         143.6814  138.8921  162.8612 N.ar    1  UNL1       -0.2425
      4 C         142.7160  138.8650  161.7134 C.ar    1  UNL1        0.0825
      5 C         143.2132  138.6111  160.3211 C.ar    1  UNL1        0.0230
      6 C         142.2479  138.5840  159.1733 C.ar    1  UNL1        0.0741
      7 C         140.7854  138.8109  159.4178 C.ar    1  UNL1        0.0183
      8 C         140.2883  139.0648  160.8101 C.ar    1  UNL1        0.0463
      9 C         141.2536  139.0919  161.9579 C.ar    1  UNL1        0.0320
     10 C         140.7565  139.3458  163.3501 C.ar    1  UNL1        0.0188
     11 C         139.7331  140.3885  170.0669 C.2     1  UNL1        0.2416
     12 O         138.2656  140.3045  170.3662 O.2     1  UNL1       -0.2734
     13 N         140.2303  140.1346  168.6747 N.am    1  UNL1       -0.2749
     14 C         141.6977  140.2185  168.3754 C.3     1  UNL1        0.1149
     15 C         142.1949  139.9646  166.9831 C.3     1  UNL1        0.1124
     16 N         141.2247  139.6268  165.8902 N.pl3   1  UNL1       -0.3028
     17 C         139.7572  139.5428  166.1895 C.3     1  UNL1        0.1124
     18 C         139.2600  139.7967  167.5817 C.3     1  UNL1        0.1149
     19 N         140.6273  142.0586  171.8449 N.3     1  UNL1       -0.3135
     20 C         140.7033  140.7263  171.1598 C.3     1  UNL1        0.1517
     21 H         141.3564  142.1175  172.5557 H       1  UNL1        0.1193
     22 H         139.7134  142.1625  172.2859 H       1  UNL1        0.1193
     23 C         142.7450  138.3301  157.7811 C.3     1  UNL1        0.4187
     24 F         143.2421  138.0762  156.3888 F       1  UNL1       -0.1659
     25 F         142.0291  137.0122  157.7658 F       1  UNL1       -0.1659
     26 F         143.4609  139.6481  157.7964 F       1  UNL1       -0.1659
     27 N         138.8259  139.2916  161.0545 N.pl3   1  UNL1       -0.3290
     28 H         138.2644  138.5586  161.3962 H       1  UNL1        0.1471
     29 C         138.2188  140.6352  160.7784 C.3     1  UNL1        0.1145
     30 C         138.2691  141.7101  161.8235 C.ar    1  UNL1        0.0035
     31 C         137.5915  141.5029  163.1456 C.ar    1  UNL1       -0.0022
     32 C         137.6417  142.5777  164.1907 C.ar    1  UNL1        0.0060
     33 C         138.3697  143.8597  163.9137 C.ar    1  UNL1        0.0752
     34 C         139.0474  144.0668  162.5917 C.ar    1  UNL1        0.2898
     35 C         138.9971  142.9920  161.5465 C.ar    1  UNL1        0.0727
     36 N         139.7754  145.3487  162.3147 N.pl3   1  UNL1        0.0809
     37 O         141.1104  145.6052  162.9487 O.2     1  UNL1        0.0415
     38 O         139.1683  146.3741  161.4037 O.co2   1  UNL1       -0.5760
@<TRIPOS>UNITY_ATOM_ATTR
36 1
charge 1
38 1
charge -1
@<TRIPOS>BOND
     1    19    20    1
     2    20    11    1
     3    11    12    2
     4    11    13   am
     5    13    14    1
     6    14    15    1
     7    15    16    1
     8    16     1    1
     9     1     2   ar
    10     2     3   ar
    11     3     4   ar
    12     4     5   ar
    13     5     6   ar
    14     6    23    1
    15    23    24    1
    16    23    25    1
    17    23    26    1
    18     6     7   ar
    19     7     8   ar
    20     8    27    1
    21    27    29    1
    22    29    30    1
    23    30    31   ar
    24    31    32   ar
    25    32    33   ar
    26    33    34   ar
    27    34    36    1
    28    36    37    2
    29    36    38    1
    30    34    35   ar
    31     8     9   ar
    32     9    10   ar
    33    16    17    1
    34    17    18    1
    35    18    13    1
    36    10     1   ar
    37     9     4   ar
    38    35    30   ar
    39    19    21    1
    40    19    22    1
    41    27    28    1
@<TRIPOS>MOLECULE
*****
 38 41 0 0 0
SMALL
GASTEIGER

@<TRIPOS>ATOM
      1 C         141.6738  142.6400  164.9984 C.ar    1  UNL1        0.0674
      2 C         142.9021  143.2921  164.4364 C.ar    1  UNL1        0.1133
      3 N         142.8907  143.8329  163.0374 N.ar    1  UNL1       -0.2425
      4 C         141.6509  143.7217  162.2004 C.ar    1  UNL1        0.0825
      5 C         141.6395  144.2626  160.8013 C.ar    1  UNL1        0.0230
      6 C         140.3998  144.1513  159.9643 C.ar    1  UNL1        0.0741
      7 C         139.1714  143.4991  160.5264 C.ar    1  UNL1        0.0183
      8 C         139.1828  142.9583  161.9254 C.ar    1  UNL1        0.0463
      9 C         140.4226  143.0696  162.7624 C.ar    1  UNL1        0.0320
     10 C         140.4340  142.5287  164.1614 C.ar    1  UNL1        0.0188
     11 C         141.7192  140.4766  170.5947 C.2     1  UNL1        0.2416
     12 O         140.8428  141.0932  171.6443 O.2     1  UNL1       -0.2734
     13 N         141.7079  141.0174  169.1957 N.am    1  UNL1       -0.2749
     14 C         142.5843  140.4008  168.1461 C.3     1  UNL1        0.1149
     15 C         142.5729  140.9416  166.7470 C.3     1  UNL1        0.1124
     16 N         141.6852  142.0991  166.3975 N.pl3   1  UNL1       -0.3028
     17 C         140.8087  142.7157  167.4471 C.3     1  UNL1        0.1124
     18 C         140.8201  142.1749  168.8462 C.3     1  UNL1        0.1149
     19 N         144.0192  139.5639  171.3867 N.3     1  UNL1       -0.3135
     20 C         142.6070  139.3191  170.9441 C.3     1  UNL1        0.1517
     21 H         144.4738  138.6719  171.5818 H       1  UNL1        0.1193
     22 H         144.0166  140.1361  172.2310 H       1  UNL1        0.1193
     23 C         140.3883  144.6921  158.5653 C.3     1  UNL1        0.4187
     24 F         140.3769  145.2330  157.1661 F       1  UNL1       -0.1659
     25 F         139.3359  143.6924  158.1874 F       1  UNL1       -0.1659
     26 F         141.4408  145.6919  158.9431 F       1  UNL1       -0.1659
     27 N         137.9545  142.3062  162.4874 N.pl3   1  UNL1       -0.3290
     28 H         137.3242  142.8307  163.0323 H       1  UNL1        0.1471
     29 C         137.6864  140.8549  162.2192 C.3     1  UNL1        0.1145
     30 C         138.2821  139.8051  163.1099 C.ar    1  UNL1        0.0035
     31 C         139.2637  138.8174  162.5523 C.ar    1  UNL1       -0.0022
     32 C         139.8593  137.7676  163.4429 C.ar    1  UNL1        0.0060
     33 C         139.4735  137.7056  164.8911 C.ar    1  UNL1        0.0752
     34 C         138.4919  138.6933  165.4487 C.ar    1  UNL1        0.2898
     35 C         137.8962  139.7431  164.5580 C.ar    1  UNL1        0.0727
     36 N         138.1060  138.6313  166.8968 N.pl3   1  UNL1        0.0809
     37 O         138.9101  139.3775  167.9199 O.2     1  UNL1        0.0415
     38 O         136.9160  137.8231  167.3219 O.co2   1  UNL1       -0.5760
@<TRIPOS>UNITY_ATOM_ATTR
36 1
charge 1
38 1
charge -1
@<TRIPOS>BOND
     1    19    20    1
     2    20    11    1
     3    11    12    2
     4    11    13   am
     5    13    14    1
     6    14    15    1
     7    15    16    1
     8    16     1    1
     9     1     2   ar
    10     2     3   ar
    11     3     4   ar
    12     4     5   ar
    13     5     6   ar
    14     6    23    1
    15    23    24    1
    16    23    25    1
    17    23    26    1
    18     6     7   ar
    19     7     8   ar
    20     8    27    1
    21    27    29    1
    22    29    30    1
    23    30    31   ar
    24    31    32   ar
    25    32    33   ar
    26    33    34   ar
    27    34    36    1
    28    36    37    2
    29    36    38    1
    30    34    35   ar
    31     8     9   ar
    32     9    10   ar
    33    16    17    1
    34    17    18    1
    35    18    13    1
    36    10     1   ar
    37     9     4   ar
    38    35    30   ar
    39    19    21    1
    40    19    22    1
    41    27    28    1
@<TRIPOS>MOLECULE
*****
 38 41 0 0 0
SMALL
GASTEIGER

@<TRIPOS>ATOM
      1 C         141.3143  139.2388  164.2588 C.ar    1  UNL1        0.0674
      2 C         140.3694  138.2682  163.6145 C.ar    1  UNL1        0.1133
      3 N         140.5085  137.9411  162.1573 N.ar    1  UNL1       -0.2425
      4 C         141.5924  138.5846  161.3443 C.ar    1  UNL1        0.0825
      5 C         141.7315  138.2575  159.8870 C.ar    1  UNL1        0.0230
      6 C         142.8154  138.9011  159.0740 C.ar    1  UNL1        0.0741
      7 C         143.7603  139.8717  159.7183 C.ar    1  UNL1        0.0183
      8 C         143.6212  140.1988  161.1755 C.ar    1  UNL1        0.0463
      9 C         142.5373  139.5552  161.9885 C.ar    1  UNL1        0.0320
     10 C         142.3982  139.8823  163.4458 C.ar    1  UNL1        0.0188
     11 C         140.7581  140.5472  170.0880 C.2     1  UNL1        0.2416
     12 O         139.3972  140.6126  170.7154 O.2     1  UNL1       -0.2734
     13 N         140.8972  140.2201  168.6307 N.am    1  UNL1       -0.2749
     14 C         142.2581  140.1547  168.0033 C.3     1  UNL1        0.1149
     15 C         142.3971  139.8275  166.5459 C.3     1  UNL1        0.1124
     16 N         141.1753  139.5659  165.7161 N.pl3   1  UNL1       -0.3028
     17 C         139.8144  139.6313  166.3436 C.3     1  UNL1        0.1124
     18 C         139.6753  139.9584  167.8008 C.3     1  UNL1        0.1149
     19 N         142.0514  142.0325  171.7825 N.3     1  UNL1       -0.3135
     20 C         141.9799  140.8088  170.9178 C.3     1  UNL1        0.1517
     21 H         142.9457  142.0506  172.2728 H       1  UNL1        0.1193
     22 H         141.2913  142.0132  172.4624 H       1  UNL1        0.1193
     23 C         142.9544  138.5740  157.6167 C.3     1  UNL1        0.4187
     24 F         143.0935  138.2470  156.1594 F       1  UNL1       -0.1659
     25 F         143.7415  139.8339  157.4090 F       1  UNL1       -0.1659
     26 F         142.1674  137.3141  157.8244 F       1  UNL1       -0.1659
     27 N         144.5661  141.1694  161.8198 N.pl3   1  UNL1       -0.3290
     28 H         145.2008  140.8576  162.5048 H       1  UNL1        0.1471
     29 C         144.5440  142.6151  161.4205 C.3     1  UNL1        0.1145
     30 C         143.5546  143.5516  162.0484 C.ar    1  UNL1        0.0035
     31 C         143.8889  144.2416  163.3376 C.ar    1  UNL1       -0.0022
     32 C         142.8997  145.1781  163.9655 C.ar    1  UNL1        0.0060
     33 C         141.5760  145.4245  163.3043 C.ar    1  UNL1        0.0752
     34 C         141.2416  144.7344  162.0151 C.ar    1  UNL1        0.2898
     35 C         142.2310  143.7979  161.3872 C.ar    1  UNL1        0.0727
     36 N         139.9180  144.9808  161.3539 N.pl3   1  UNL1        0.0809
     37 O         139.1447  143.8341  160.7732 O.2     1  UNL1        0.0415
     38 O         139.3677  146.3738  161.2732 O.co2   1  UNL1       -0.5760
@<TRIPOS>UNITY_ATOM_ATTR
36 1
charge 1
38 1
charge -1
@<TRIPOS>BOND
     1    19    20    1
     2    20    11    1
     3    11    12    2
     4    11    13   am
     5    13    14    1
     6    14    15    1
     7    15    16    1
     8    16     1    1
     9     1     2   ar
    10     2     3   ar
    11     3     4   ar
    12     4     5   ar
    13     5     6   ar
    14     6    23    1
    15    23    24    1
    16    23    25    1
    17    23    26    1
    18     6     7   ar
    19     7     8   ar
    20     8    27    1
    21    27    29    1
    22    29    30    1
    23    30    31   ar
    24    31    32   ar
    25    32    33   ar
    26    33    34   ar
    27    34    36    1
    28    36    37    2
    29    36    38    1
    30    34    35   ar
    31     8     9   ar
    32     9    10   ar
    33    16    17    1
    34    17    18    1
    35    18    13    1
    36    10     1   ar
    37     9     4   ar
    38    35    30   ar
    39    19    21    1
    40    19    22    1
    41    27    28    1
@<TRIPOS>MOLECULE
*****
 38 41 0 0 0
SMALL
GASTEIGER

@<TRIPOS>ATOM
      1 C         142.1515  139.5400  162.2078 C.ar    1  UNL1        0.0674
      2 C         143.2141  139.4139  163.2589 C.ar    1  UNL1        0.1133
      3 N         142.8442  139.4794  164.7110 N.ar    1  UNL1       -0.2425
      4 C         141.4115  139.6711  165.1121 C.ar    1  UNL1        0.0825
      5 C         141.0416  139.7366  166.5643 C.ar    1  UNL1        0.0230
      6 C         139.6090  139.9283  166.9654 C.ar    1  UNL1        0.0741
      7 C         138.5463  140.0544  165.9142 C.ar    1  UNL1        0.0183
      8 C         138.9163  139.9888  164.4621 C.ar    1  UNL1        0.0463
      9 C         140.3489  139.7972  164.0610 C.ar    1  UNL1        0.0320
     10 C         140.7189  139.7316  162.6089 C.ar    1  UNL1        0.0188
     11 C         143.6312  139.2778  156.3990 C.2     1  UNL1        0.2416
     12 O         143.0325  138.2203  155.5195 O.2     1  UNL1       -0.2734
     13 N         143.2613  139.3433  157.8511 N.am    1  UNL1       -0.2749
     14 C         143.8600  140.4007  158.7306 C.3     1  UNL1        0.1149
     15 C         143.4900  140.4663  160.1828 C.3     1  UNL1        0.1124
     16 N         142.5214  139.4744  160.7555 N.pl3   1  UNL1       -0.3028
     17 C         141.9228  138.4170  159.8761 C.3     1  UNL1        0.1124
     18 C         142.2927  138.3514  158.4239 C.3     1  UNL1        0.1149
     19 N         146.0738  139.9968  155.8824 N.3     1  UNL1       -0.3135
     20 C         144.5998  140.2696  155.8263 C.3     1  UNL1        0.1517
     21 H         146.5793  140.7703  155.4503 H       1  UNL1        0.1193
     22 H         146.2791  139.1334  155.3797 H       1  UNL1        0.1193
     23 C         139.2390  139.9938  168.4175 C.3     1  UNL1        0.4187
     24 F         138.8689  140.0593  169.8697 F       1  UNL1       -0.1659
     25 F         137.9788  139.2325  168.1308 F       1  UNL1       -0.1659
     26 F         140.4992  140.7551  168.7042 F       1  UNL1       -0.1659
     27 N         137.8536  140.1149  163.4110 N.pl3   1  UNL1       -0.3290
     28 H         137.5543  139.3186  162.9155 H       1  UNL1        0.1471
     29 C         137.2469  141.4544  163.1147 C.3     1  UNL1        0.1145
     30 C         138.0773  142.6976  163.2377 C.ar    1  UNL1        0.0035
     31 C         138.0922  143.4650  164.5265 C.ar    1  UNL1       -0.0022
     32 C         138.9225  144.7081  164.6495 C.ar    1  UNL1        0.0060
     33 C         139.7379  145.1839  163.4838 C.ar    1  UNL1        0.0752
     34 C         139.7230  144.4165  162.1951 C.ar    1  UNL1        0.2898
     35 C         138.8926  143.1733  162.0720 C.ar    1  UNL1        0.0727
     36 N         140.5383  144.8922  161.0294 N.pl3   1  UNL1        0.0809
     37 O         142.0289  144.7249  161.0386 O.2     1  UNL1        0.0415
     38 O         139.8630  145.5353  159.8545 O.co2   1  UNL1       -0.5760
@<TRIPOS>UNITY_ATOM_ATTR
36 1
charge 1
38 1
charge -1
@<TRIPOS>BOND
     1    19    20    1
     2    20    11    1
     3    11    12    2
     4    11    13   am
     5    13    14    1
     6    14    15    1
     7    15    16    1
     8    16     1    1
     9     1     2   ar
    10     2     3   ar
    11     3     4   ar
    12     4     5   ar
    13     5     6   ar
    14     6    23    1
    15    23    24    1
    16    23    25    1
    17    23    26    1
    18     6     7   ar
    19     7     8   ar
    20     8    27    1
    21    27    29    1
    22    29    30    1
    23    30    31   ar
    24    31    32   ar
    25    32    33   ar
    26    33    34   ar
    27    34    36    1
    28    36    37    2
    29    36    38    1
    30    34    35   ar
    31     8     9   ar
    32     9    10   ar
    33    16    17    1
    34    17    18    1
    35    18    13    1
    36    10     1   ar
    37     9     4   ar
    38    35    30   ar
    39    19    21    1
    40    19    22    1
    41    27    28    1
