@<TRIPOS>MOLECULE
*****
 44 47 0 0 0
SMALL
GASTEIGER

@<TRIPOS>ATOM
      1 C         140.6548  140.6161  163.1958 C.3     1  UNL1        0.0808
      2 C         140.3423  140.5364  164.6608 C.ar    1  UNL1        0.0375
      3 C         140.6009  141.7177  165.5482 C.ar    1  UNL1        0.0023
      4 C         140.2883  141.6381  167.0131 C.ar    1  UNL1        0.0181
      5 C         140.5469  142.8195  167.9004 C.ar    1  UNL1        0.0082
      6 C         140.2344  142.7397  169.3654 C.ar    1  UNL1        0.0347
      7 BR        140.4929  143.9211  170.2528 Br      1  UNL1       -0.0490
      8 C         139.6633  141.4787  169.9429 C.ar    1  UNL1        0.0082
      9 C         139.4047  140.2973  169.0555 C.ar    1  UNL1        0.0197
     10 C         139.7172  140.3770  167.5906 C.ar    1  UNL1        0.0844
     11 N         139.4586  139.1956  166.7032 N.ar    1  UNL1       -0.2119
     12 C         139.7712  139.2753  165.2383 C.ar    1  UNL1        0.2211
     13 O         139.5126  138.0939  164.3509 O.3     1  UNL1       -0.4563
     14 C         140.6405  137.1364  164.5982 C.3     1  UNL1        0.2542
     15 C         141.7834  139.8097  162.6248 C.ar    1  UNL1        0.0245
     16 C         143.1084  139.7719  163.3267 C.ar    1  UNL1        0.0200
     17 C         144.2370  138.9656  162.7557 C.ar    1  UNL1        0.1019
     18 N         144.0405  138.1969  161.4826 N.ar    1  UNL1       -0.2076
     19 C         142.7154  138.2347  160.7806 C.ar    1  UNL1        0.2598
     20 C         141.5868  139.0411  161.3517 C.ar    1  UNL1        0.1879
     21 O         142.5188  137.4661  159.5076 O.3     1  UNL1       -0.4541
     22 C         142.6227  138.1663  158.1852 C.3     1  UNL1        0.2543
     23 O         140.2617  139.0789  160.6498 O.3     1  UNL1       -0.4670
     24 C         139.2670  137.9770  160.8656 C.3     1  UNL1        0.2527
     25 C         139.8388  141.5022  162.3020 C.3     1  UNL1        0.1161
     26 O         138.6231  140.6715  162.5884 O.3     1  UNL1       -0.3820
     27 H         137.8635  141.0327  162.1052 H       1  UNL1        0.2107
     28 C         142.9324  143.9301  162.8355 C.ar    1  UNL1        0.1078
     29 C         141.7167  143.0995  163.1218 C.ar    1  UNL1        0.0236
     30 C         141.0545  142.3329  162.0156 C.ar    1  UNL1        0.0072
     31 C         141.6081  142.3969  160.6230 C.ar    1  UNL1        0.0323
     32 C         142.8238  143.2276  160.3366 C.ar    1  UNL1        0.1321
     33 N         143.4859  143.9942  161.4428 N.ar    1  UNL1       -0.2245
     34 N         143.3773  143.2916  158.9439 N.pl3   1  UNL1       -0.2897
     35 C         142.6595  144.0775  157.8869 C.3     1  UNL1        0.1136
     36 C         144.6486  142.5699  158.6082 C.3     1  UNL1        0.1136
     37 S         143.5946  144.6968  163.9418 S.3     1  UNL1       -0.0949
     38 C         143.9708  142.8975  165.7777 C.3     1  UNL1        0.0130
     39 C         144.5058  143.9914  164.9020 C.3     1  UNL1        0.0637
     40 C         139.0228  142.3883  161.4082 C.3     1  UNL1        0.0491
     41 C         137.9451  143.2536  161.9913 C.3     1  UNL1        0.0750
     42 N         138.3000  144.3440  162.9583 N.3     1  UNL1       -0.2702
     43 C         139.0822  145.5355  162.4911 C.3     1  UNL1        0.0897
     44 C         137.8726  144.2428  164.3926 C.3     1  UNL1        0.0897
@<TRIPOS>BOND
     1    38    39    1
     2    39    37    1
     3    37    28    1
     4    28    29   ar
     5    29    30   ar
     6    30    25    1
     7    25    26    1
     8    25    40    1
     9    40    41    1
    10    41    42    1
    11    42    43    1
    12    42    44    1
    13    25     1    1
    14     1     2    1
    15     2     3   ar
    16     3     4   ar
    17     4     5   ar
    18     5     6   ar
    19     6     7    1
    20     6     8   ar
    21     8     9   ar
    22     9    10   ar
    23    10    11   ar
    24    11    12   ar
    25    12    13    1
    26    13    14    1
    27     1    15    1
    28    15    16   ar
    29    16    17   ar
    30    17    18   ar
    31    18    19   ar
    32    19    21    1
    33    21    22    1
    34    19    20   ar
    35    20    23    1
    36    23    24    1
    37    30    31   ar
    38    31    32   ar
    39    32    34    1
    40    34    35    1
    41    34    36    1
    42    32    33   ar
    43    33    28   ar
    44    12     2   ar
    45    20    15   ar
    46    10     4   ar
    47    26    27    1
@<TRIPOS>MOLECULE
*****
 44 47 0 0 0
SMALL
GASTEIGER

@<TRIPOS>ATOM
      1 C         141.7644  140.9025  162.7055 C.3     1  UNL1        0.0808
      2 C         141.6581  140.6461  164.1797 C.ar    1  UNL1        0.0375
      3 C         141.2836  141.7617  165.1098 C.ar    1  UNL1        0.0023
      4 C         141.1773  141.5054  166.5839 C.ar    1  UNL1        0.0181
      5 C         140.8028  142.6210  167.5140 C.ar    1  UNL1        0.0082
      6 C         140.6965  142.3647  168.9882 C.ar    1  UNL1        0.0347
      7 BR        140.3220  143.4802  169.9184 Br      1  UNL1       -0.0490
      8 C         140.9647  140.9928  169.5321 C.ar    1  UNL1        0.0082
      9 C         141.3393  139.8772  168.6020 C.ar    1  UNL1        0.0197
     10 C         141.4455  140.1335  167.1279 C.ar    1  UNL1        0.0844
     11 N         141.8201  139.0179  166.1977 N.ar    1  UNL1       -0.2119
     12 C         141.9264  139.2742  164.7236 C.ar    1  UNL1        0.2211
     13 O         142.3009  138.1587  163.7934 O.3     1  UNL1       -0.4563
     14 C         141.1870  137.1577  163.8787 C.3     1  UNL1        0.2542
     15 C         140.9409  140.0990  161.7432 C.ar    1  UNL1        0.0245
     16 C         139.4631  139.9569  161.9575 C.ar    1  UNL1        0.0200
     17 C         138.6395  139.1534  160.9952 C.ar    1  UNL1        0.1019
     18 N         139.2937  138.4919  159.8185 N.ar    1  UNL1       -0.2076
     19 C         140.7715  138.6340  159.6043 C.ar    1  UNL1        0.2598
     20 C         141.5951  139.4375  160.5666 C.ar    1  UNL1        0.1879
     21 O         141.4258  137.9725  158.4277 O.3     1  UNL1       -0.4541
     22 C         140.6394  137.7221  157.1751 C.3     1  UNL1        0.2543
     23 O         143.0729  139.5796  160.3523 O.3     1  UNL1       -0.4670
     24 C         143.9983  138.4666  160.7462 C.3     1  UNL1        0.2527
     25 C         142.6943  141.9624  162.1937 C.3     1  UNL1        0.1161
     26 O         143.8656  141.1933  162.7290 O.3     1  UNL1       -0.3820
     27 H         144.6850  141.6737  162.5323 H       1  UNL1        0.2107
     28 C         139.2737  143.9699  162.0547 C.ar    1  UNL1        0.1078
     29 C         140.4450  143.2008  162.5899 C.ar    1  UNL1        0.0236
     30 C         141.5230  142.7316  161.6585 C.ar    1  UNL1        0.0072
     31 C         141.4297  143.0315  160.1918 C.ar    1  UNL1        0.0323
     32 C         140.2584  143.8006  159.6565 C.ar    1  UNL1        0.1321
     33 N         139.1804  144.2699  160.5880 N.ar    1  UNL1       -0.2245
     34 N         140.1652  144.1006  158.1897 N.pl3   1  UNL1       -0.2897
     35 C         139.8293  143.0063  157.2203 C.3     1  UNL1        0.1136
     36 C         140.4078  145.4947  157.6924 C.3     1  UNL1        0.1136
     37 S         138.1957  144.4392  162.9862 S.3     1  UNL1       -0.0949
     38 C         138.6357  144.9187  165.5015 C.3     1  UNL1        0.0130
     39 C         138.1896  143.9848  164.4158 C.3     1  UNL1        0.0637
     40 C         143.6242  143.0223  161.6819 C.3     1  UNL1        0.0491
     41 C         144.5166  143.7610  162.6349 C.3     1  UNL1        0.0750
     42 N         143.9915  144.1938  163.9717 N.3     1  UNL1       -0.2702
     43 C         144.5069  143.5496  165.2244 C.3     1  UNL1        0.0897
     44 C         142.9509  145.2710  164.0557 C.3     1  UNL1        0.0897
@<TRIPOS>BOND
     1    38    39    1
     2    39    37    1
     3    37    28    1
     4    28    29   ar
     5    29    30   ar
     6    30    25    1
     7    25    26    1
     8    25    40    1
     9    40    41    1
    10    41    42    1
    11    42    43    1
    12    42    44    1
    13    25     1    1
    14     1     2    1
    15     2     3   ar
    16     3     4   ar
    17     4     5   ar
    18     5     6   ar
    19     6     7    1
    20     6     8   ar
    21     8     9   ar
    22     9    10   ar
    23    10    11   ar
    24    11    12   ar
    25    12    13    1
    26    13    14    1
    27     1    15    1
    28    15    16   ar
    29    16    17   ar
    30    17    18   ar
    31    18    19   ar
    32    19    21    1
    33    21    22    1
    34    19    20   ar
    35    20    23    1
    36    23    24    1
    37    30    31   ar
    38    31    32   ar
    39    32    34    1
    40    34    35    1
    41    34    36    1
    42    32    33   ar
    43    33    28   ar
    44    12     2   ar
    45    20    15   ar
    46    10     4   ar
    47    26    27    1
@<TRIPOS>MOLECULE
*****
 44 47 0 0 0
SMALL
GASTEIGER

@<TRIPOS>ATOM
      1 C         141.4953  142.4250  162.4424 C.3     1  UNL1        0.0808
      2 C         141.9396  142.3559  163.8735 C.ar    1  UNL1        0.0375
      3 C         141.0641  141.6997  164.8997 C.ar    1  UNL1        0.0023
      4 C         141.5084  141.6305  166.3307 C.ar    1  UNL1        0.0181
      5 C         140.6329  140.9743  167.3569 C.ar    1  UNL1        0.0082
      6 C         141.0772  140.9051  168.7880 C.ar    1  UNL1        0.0347
      7 BR        140.2018  140.2489  169.8141 Br      1  UNL1       -0.0490
      8 C         142.3969  141.4921  169.1928 C.ar    1  UNL1        0.0082
      9 C         143.2723  142.1483  168.1666 C.ar    1  UNL1        0.0197
     10 C         142.8281  142.2175  166.7356 C.ar    1  UNL1        0.0844
     11 N         143.7035  142.8736  165.7094 N.ar    1  UNL1       -0.2119
     12 C         143.2592  142.9428  164.2783 C.ar    1  UNL1        0.2211
     13 O         144.1346  143.5990  163.2521 O.3     1  UNL1       -0.4563
     14 C         143.9101  145.0747  163.3999 C.3     1  UNL1        0.2542
     15 C         142.3547  141.8400  161.3612 C.ar    1  UNL1        0.0245
     16 C         142.7018  140.3810  161.3861 C.ar    1  UNL1        0.0200
     17 C         143.5612  139.7960  160.3048 C.ar    1  UNL1        0.1019
     18 N         144.0735  140.6700  159.1986 N.ar    1  UNL1       -0.2076
     19 C         143.7264  142.1291  159.1737 C.ar    1  UNL1        0.2598
     20 C         142.8670  142.7141  160.2551 C.ar    1  UNL1        0.1879
     21 O         144.2387  143.0032  158.0676 O.3     1  UNL1       -0.4541
     22 C         143.7769  142.7775  156.6585 C.3     1  UNL1        0.2543
     23 O         142.5198  144.1732  160.2302 O.3     1  UNL1       -0.4670
     24 C         141.5543  144.6971  159.2087 C.3     1  UNL1        0.2527
     25 C         140.1916  143.0793  162.0927 C.3     1  UNL1        0.1161
     26 O         140.6862  144.3729  162.6687 O.3     1  UNL1       -0.3820
     27 H         139.9979  145.0506  162.5797 H       1  UNL1        0.2107
     28 C         138.9202  139.3281  161.8437 C.ar    1  UNL1        0.1078
     29 C         139.4148  140.6217  162.4197 C.ar    1  UNL1        0.0236
     30 C         139.6969  141.7856  161.5166 C.ar    1  UNL1        0.0072
     31 C         139.4844  141.6559  160.0375 C.ar    1  UNL1        0.0323
     32 C         138.9898  140.3623  159.4614 C.ar    1  UNL1        0.1321
     33 N         138.7077  139.1983  160.3645 N.ar    1  UNL1       -0.2245
     34 N         138.7772  140.2326  157.9822 N.pl3   1  UNL1       -0.2897
     35 C         139.7364  139.4297  157.1542 C.3     1  UNL1        0.1136
     36 C         137.6056  140.9058  157.3309 C.3     1  UNL1        0.1136
     37 S         138.6381  138.1641  162.7469 S.3     1  UNL1       -0.0949
     38 C         139.0755  137.9285  165.2970 C.3     1  UNL1        0.0130
     39 C         139.5679  137.8532  163.8822 C.3     1  UNL1        0.0637
     40 C         138.8878  143.7335  161.7430 C.3     1  UNL1        0.0491
     41 C         138.1210  144.4850  162.7905 C.3     1  UNL1        0.0750
     42 N         138.1060  143.9920  164.2071 N.3     1  UNL1       -0.2702
     43 C         137.5447  142.6376  164.5240 C.3     1  UNL1        0.0897
     44 C         138.6525  144.8535  165.3068 C.3     1  UNL1        0.0897
@<TRIPOS>BOND
     1    38    39    1
     2    39    37    1
     3    37    28    1
     4    28    29   ar
     5    29    30   ar
     6    30    25    1
     7    25    26    1
     8    25    40    1
     9    40    41    1
    10    41    42    1
    11    42    43    1
    12    42    44    1
    13    25     1    1
    14     1     2    1
    15     2     3   ar
    16     3     4   ar
    17     4     5   ar
    18     5     6   ar
    19     6     7    1
    20     6     8   ar
    21     8     9   ar
    22     9    10   ar
    23    10    11   ar
    24    11    12   ar
    25    12    13    1
    26    13    14    1
    27     1    15    1
    28    15    16   ar
    29    16    17   ar
    30    17    18   ar
    31    18    19   ar
    32    19    21    1
    33    21    22    1
    34    19    20   ar
    35    20    23    1
    36    23    24    1
    37    30    31   ar
    38    31    32   ar
    39    32    34    1
    40    34    35    1
    41    34    36    1
    42    32    33   ar
    43    33    28   ar
    44    12     2   ar
    45    20    15   ar
    46    10     4   ar
    47    26    27    1
@<TRIPOS>MOLECULE
*****
 44 47 0 0 0
SMALL
GASTEIGER

@<TRIPOS>ATOM
      1 C         140.1249  141.3696  161.6569 C.3     1  UNL1        0.0808
      2 C         139.8291  140.9289  163.0599 C.ar    1  UNL1        0.0375
      3 C         140.7122  141.3740  164.1878 C.ar    1  UNL1        0.0023
      4 C         140.4165  140.9333  165.5907 C.ar    1  UNL1        0.0181
      5 C         141.2996  141.3784  166.7186 C.ar    1  UNL1        0.0082
      6 C         141.0038  140.9377  168.1216 C.ar    1  UNL1        0.0347
      7 BR        141.8869  141.3828  169.2494 Br      1  UNL1       -0.0490
      8 C         139.8250  140.0519  168.3967 C.ar    1  UNL1        0.0082
      9 C         138.9419  139.6068  167.2688 C.ar    1  UNL1        0.0197
     10 C         139.2376  140.0475  165.8659 C.ar    1  UNL1        0.0844
     11 N         138.3545  139.6024  164.7381 N.ar    1  UNL1       -0.2119
     12 C         138.6503  140.0431  163.3350 C.ar    1  UNL1        0.2211
     13 O         137.7672  139.5980  162.2072 O.3     1  UNL1       -0.4563
     14 C         138.0005  138.1239  162.0565 C.3     1  UNL1        0.2542
     15 C         140.3747  140.3485  160.5870 C.ar    1  UNL1        0.0245
     16 C         141.5264  139.3958  160.7136 C.ar    1  UNL1        0.0200
     17 C         141.7762  138.3747  159.6436 C.ar    1  UNL1        0.1019
     18 N         140.8743  138.3062  158.4469 N.ar    1  UNL1       -0.2076
     19 C         139.7226  139.2589  158.3203 C.ar    1  UNL1        0.2598
     20 C         139.4728  140.2800  159.3904 C.ar    1  UNL1        0.1879
     21 O         138.8207  139.1904  157.1238 O.3     1  UNL1       -0.4541
     22 C         139.2758  138.4846  155.8810 C.3     1  UNL1        0.2543
     23 O         138.3211  141.2327  159.2638 O.3     1  UNL1       -0.4670
     24 C         138.3600  142.3239  158.2352 C.3     1  UNL1        0.2527
     25 C         140.1709  142.8315  161.3240 C.3     1  UNL1        0.1161
     26 O         138.7086  142.9487  161.6370 O.3     1  UNL1       -0.3820
     27 H         138.4214  143.8653  161.5014 H       1  UNL1        0.2107
     28 C         144.0844  142.3813  161.8049 C.ar    1  UNL1        0.1078
     29 C         142.6222  142.4985  162.1179 C.ar    1  UNL1        0.0236
     30 C         141.6332  142.7142  161.0110 C.ar    1  UNL1        0.0072
     31 C         142.1065  142.8126  159.5910 C.ar    1  UNL1        0.0323
     32 C         143.5688  142.6953  159.2781 C.ar    1  UNL1        0.1321
     33 N         144.5577  142.4797  160.3850 N.ar    1  UNL1       -0.2245
     34 N         144.0421  142.7938  157.8580 N.pl3   1  UNL1       -0.2897
     35 C         145.4463  142.4007  157.5066 C.3     1  UNL1        0.1136
     36 C         143.1111  143.2852  156.7895 C.3     1  UNL1        0.1136
     37 S         145.0734  142.1656  162.9119 S.3     1  UNL1       -0.0949
     38 C         144.5087  143.3030  165.1785 C.3     1  UNL1        0.0130
     39 C         144.6002  142.0681  164.3320 C.3     1  UNL1        0.0637
     40 C         140.2169  144.2933  160.9910 C.3     1  UNL1        0.0491
     41 C         139.7940  145.3085  162.0112 C.3     1  UNL1        0.0750
     42 N         140.2276  145.1619  163.4396 N.3     1  UNL1       -0.2702
     43 C         139.2192  144.8298  164.4992 C.3     1  UNL1        0.0897
     44 C         141.6697  145.3474  163.8084 C.3     1  UNL1        0.0897
@<TRIPOS>BOND
     1    38    39    1
     2    39    37    1
     3    37    28    1
     4    28    29   ar
     5    29    30   ar
     6    30    25    1
     7    25    26    1
     8    25    40    1
     9    40    41    1
    10    41    42    1
    11    42    43    1
    12    42    44    1
    13    25     1    1
    14     1     2    1
    15     2     3   ar
    16     3     4   ar
    17     4     5   ar
    18     5     6   ar
    19     6     7    1
    20     6     8   ar
    21     8     9   ar
    22     9    10   ar
    23    10    11   ar
    24    11    12   ar
    25    12    13    1
    26    13    14    1
    27     1    15    1
    28    15    16   ar
    29    16    17   ar
    30    17    18   ar
    31    18    19   ar
    32    19    21    1
    33    21    22    1
    34    19    20   ar
    35    20    23    1
    36    23    24    1
    37    30    31   ar
    38    31    32   ar
    39    32    34    1
    40    34    35    1
    41    34    36    1
    42    32    33   ar
    43    33    28   ar
    44    12     2   ar
    45    20    15   ar
    46    10     4   ar
    47    26    27    1
@<TRIPOS>MOLECULE
*****
 44 47 0 0 0
SMALL
GASTEIGER

@<TRIPOS>ATOM
      1 C         140.3721  141.7021  163.1421 C.3     1  UNL1        0.0808
      2 C         140.4143  142.0183  164.6078 C.ar    1  UNL1        0.0375
      3 C         141.0990  141.0809  165.5578 C.ar    1  UNL1        0.0023
      4 C         141.1412  141.3970  167.0235 C.ar    1  UNL1        0.0181
      5 C         141.8259  140.4596  167.9735 C.ar    1  UNL1        0.0082
      6 C         141.8681  140.7758  169.4392 C.ar    1  UNL1        0.0347
      7 BR        142.5528  139.8384  170.3892 Br      1  UNL1       -0.0490
      8 C         141.2257  142.0293  169.9549 C.ar    1  UNL1        0.0082
      9 C         140.5411  142.9667  169.0049 C.ar    1  UNL1        0.0197
     10 C         140.4988  142.6506  167.5392 C.ar    1  UNL1        0.0844
     11 N         139.8141  143.5880  166.5892 N.ar    1  UNL1       -0.2119
     12 C         139.7719  143.2718  165.1235 C.ar    1  UNL1        0.2211
     13 O         139.0872  144.2092  164.1735 O.3     1  UNL1       -0.4563
     14 C         137.6165  143.9674  164.3421 C.3     1  UNL1        0.2542
     15 C         140.8721  142.7040  162.1440 C.ar    1  UNL1        0.0245
     16 C         142.2562  143.2671  162.2755 C.ar    1  UNL1        0.0200
     17 C         142.7563  144.2689  161.2775 C.ar    1  UNL1        0.1019
     18 N         141.8723  144.7077  160.1478 N.ar    1  UNL1       -0.2076
     19 C         140.4882  144.1446  160.0163 C.ar    1  UNL1        0.2598
     20 C         139.9881  143.1427  161.0144 C.ar    1  UNL1        0.1879
     21 O         139.6042  144.5834  158.8867 O.3     1  UNL1       -0.4541
     22 C         140.0433  144.3775  157.4673 C.3     1  UNL1        0.2543
     23 O         138.6041  142.5796  160.8829 O.3     1  UNL1       -0.4670
     24 C         138.2664  141.6809  159.7303 C.3     1  UNL1        0.2527
     25 C         139.8297  140.3841  162.6745 C.3     1  UNL1        0.1161
     26 O         138.4661  140.7711  163.1651 O.3     1  UNL1       -0.3820
     27 H         137.8415  140.0510  162.9857 H       1  UNL1        0.2107
     28 C         143.7016  139.5133  162.6579 C.ar    1  UNL1        0.1078
     29 C         142.3380  139.9003  163.1485 C.ar    1  UNL1        0.0236
     30 C         141.1934  139.9970  162.1839 C.ar    1  UNL1        0.0072
     31 C         141.4124  139.7067  160.7287 C.ar    1  UNL1        0.0323
     32 C         142.7761  139.3197  160.2381 C.ar    1  UNL1        0.1321
     33 N         143.9207  139.2229  161.2027 N.ar    1  UNL1       -0.2245
     34 N         142.9951  139.0293  158.7828 N.pl3   1  UNL1       -0.2897
     35 C         143.5819  140.0808  157.8883 C.3     1  UNL1        0.1136
     36 C         142.6273  137.6876  158.2221 C.3     1  UNL1        0.1136
     37 S         144.8462  139.4166  163.6226 S.3     1  UNL1       -0.0949
     38 C         145.6061  141.8719  163.2433 C.3     1  UNL1        0.0130
     39 C         145.5092  140.6639  164.1272 C.3     1  UNL1        0.0637
     40 C         139.2874  139.0660  162.2069 C.3     1  UNL1        0.0491
     41 C         138.6491  138.1273  163.1874 C.3     1  UNL1        0.0750
     42 N         139.2185  137.9833  164.5676 N.3     1  UNL1       -0.2702
     43 C         138.4427  138.4737  165.7540 C.3     1  UNL1        0.0897
     44 C         140.5639  137.3488  164.7614 C.3     1  UNL1        0.0897
@<TRIPOS>BOND
     1    38    39    1
     2    39    37    1
     3    37    28    1
     4    28    29   ar
     5    29    30   ar
     6    30    25    1
     7    25    26    1
     8    25    40    1
     9    40    41    1
    10    41    42    1
    11    42    43    1
    12    42    44    1
    13    25     1    1
    14     1     2    1
    15     2     3   ar
    16     3     4   ar
    17     4     5   ar
    18     5     6   ar
    19     6     7    1
    20     6     8   ar
    21     8     9   ar
    22     9    10   ar
    23    10    11   ar
    24    11    12   ar
    25    12    13    1
    26    13    14    1
    27     1    15    1
    28    15    16   ar
    29    16    17   ar
    30    17    18   ar
    31    18    19   ar
    32    19    21    1
    33    21    22    1
    34    19    20   ar
    35    20    23    1
    36    23    24    1
    37    30    31   ar
    38    31    32   ar
    39    32    34    1
    40    34    35    1
    41    34    36    1
    42    32    33   ar
    43    33    28   ar
    44    12     2   ar
    45    20    15   ar
    46    10     4   ar
    47    26    27    1
@<TRIPOS>MOLECULE
*****
 44 47 0 0 0
SMALL
GASTEIGER

@<TRIPOS>ATOM
      1 C         141.6280  140.5566  160.9259 C.3     1  UNL1        0.0808
      2 C         141.8909  140.1751  162.3526 C.ar    1  UNL1        0.0375
      3 C         141.6575  141.1704  163.4502 C.ar    1  UNL1        0.0023
      4 C         141.9203  140.7890  164.8769 C.ar    1  UNL1        0.0181
      5 C         141.6869  141.7843  165.9746 C.ar    1  UNL1        0.0082
      6 C         141.9497  141.4028  167.4013 C.ar    1  UNL1        0.0347
      7 BR        141.7163  142.3981  168.4989 Br      1  UNL1       -0.0490
      8 C         142.4459  140.0260  167.7303 C.ar    1  UNL1        0.0082
      9 C         142.6793  139.0307  166.6326 C.ar    1  UNL1        0.0197
     10 C         142.4165  139.4122  165.2060 C.ar    1  UNL1        0.0844
     11 N         142.6499  138.4168  164.1083 N.ar    1  UNL1       -0.2119
     12 C         142.3871  138.7983  162.6816 C.ar    1  UNL1        0.2211
     13 O         142.6205  137.8030  161.5839 O.3     1  UNL1       -0.4563
     14 C         144.1058  137.7518  161.3813 C.3     1  UNL1        0.2542
     15 C         142.7486  141.0612  160.0658 C.ar    1  UNL1        0.0245
     16 C         143.4448  142.3426  160.4168 C.ar    1  UNL1        0.0200
     17 C         144.5654  142.8472  159.5567 C.ar    1  UNL1        0.1019
     18 N         144.9897  142.0704  158.3457 N.ar    1  UNL1       -0.2076
     19 C         144.2935  140.7890  157.9948 C.ar    1  UNL1        0.2598
     20 C         143.1729  140.2844  158.8549 C.ar    1  UNL1        0.1879
     21 O         144.7178  140.0122  156.7838 O.3     1  UNL1       -0.4541
     22 C         145.6320  140.6388  155.7732 C.3     1  UNL1        0.2543
     23 O         142.4766  139.0029  158.5039 O.3     1  UNL1       -0.4670
     24 C         141.6157  138.9286  157.2778 C.3     1  UNL1        0.2527
     25 C         140.2446  140.4334  160.3593 C.3     1  UNL1        0.1161
     26 O         140.3451  138.9389  160.4389 O.3     1  UNL1       -0.3820
     27 H         139.5233  138.5417  160.1106 H       1  UNL1        0.2107
     28 C         139.7885  144.2242  161.4418 C.ar    1  UNL1        0.1078
     29 C         139.8890  142.7297  161.5214 C.ar    1  UNL1        0.0236
     30 C         140.1442  141.9280  160.2796 C.ar    1  UNL1        0.0072
     31 C         140.2990  142.6207  158.9583 C.ar    1  UNL1        0.0323
     32 C         140.1986  144.1152  158.8787 C.ar    1  UNL1        0.1321
     33 N         139.9433  144.9170  160.1204 N.ar    1  UNL1       -0.2245
     34 N         140.3534  144.8080  157.5572 N.pl3   1  UNL1       -0.2897
     35 C         141.4680  145.7906  157.3516 C.3     1  UNL1        0.1136
     36 C         139.3937  144.5181  156.4415 C.3     1  UNL1        0.1136
     37 S         139.5333  145.0260  162.6836 S.3     1  UNL1       -0.0949
     38 C         138.8391  144.6914  165.1648 C.3     1  UNL1        0.0130
     39 C         138.5459  144.5377  163.7018 C.3     1  UNL1        0.0637
     40 C         138.8612  140.3103  159.7927 C.3     1  UNL1        0.0491
     41 C         137.6849  140.1618  160.7115 C.3     1  UNL1        0.0750
     42 N         137.8351  139.4244  162.0091 N.3     1  UNL1       -0.2702
     43 C         137.9914  140.1869  163.2913 C.3     1  UNL1        0.0897
     44 C         137.8291  137.9245  162.0243 C.3     1  UNL1        0.0897
@<TRIPOS>BOND
     1    38    39    1
     2    39    37    1
     3    37    28    1
     4    28    29   ar
     5    29    30   ar
     6    30    25    1
     7    25    26    1
     8    25    40    1
     9    40    41    1
    10    41    42    1
    11    42    43    1
    12    42    44    1
    13    25     1    1
    14     1     2    1
    15     2     3   ar
    16     3     4   ar
    17     4     5   ar
    18     5     6   ar
    19     6     7    1
    20     6     8   ar
    21     8     9   ar
    22     9    10   ar
    23    10    11   ar
    24    11    12   ar
    25    12    13    1
    26    13    14    1
    27     1    15    1
    28    15    16   ar
    29    16    17   ar
    30    17    18   ar
    31    18    19   ar
    32    19    21    1
    33    21    22    1
    34    19    20   ar
    35    20    23    1
    36    23    24    1
    37    30    31   ar
    38    31    32   ar
    39    32    34    1
    40    34    35    1
    41    34    36    1
    42    32    33   ar
    43    33    28   ar
    44    12     2   ar
    45    20    15   ar
    46    10     4   ar
    47    26    27    1
@<TRIPOS>MOLECULE
*****
 44 47 0 0 0
SMALL
GASTEIGER

@<TRIPOS>ATOM
      1 C         141.5804  141.7445  164.2605 C.3     1  UNL1        0.0808
      2 C         142.4250  142.0156  163.0509 C.ar    1  UNL1        0.0375
      3 C         142.2667  141.1714  161.8212 C.ar    1  UNL1        0.0023
      4 C         143.1112  141.4424  160.6115 C.ar    1  UNL1        0.0181
      5 C         142.9529  140.5982  159.3818 C.ar    1  UNL1        0.0082
      6 C         143.7976  140.8692  158.1721 C.ar    1  UNL1        0.0347
      7 BR        143.6393  140.0250  156.9424 Br      1  UNL1       -0.0490
      8 C         144.8004  141.9845  158.1922 C.ar    1  UNL1        0.0082
      9 C         144.9587  142.8287  159.4220 C.ar    1  UNL1        0.0197
     10 C         144.1142  142.5577  160.6316 C.ar    1  UNL1        0.0844
     11 N         144.2725  143.4019  161.8613 N.ar    1  UNL1       -0.2119
     12 C         143.4278  143.1309  163.0710 C.ar    1  UNL1        0.2211
     13 O         143.5861  143.9751  164.3007 O.3     1  UNL1       -0.4563
     14 C         144.7198  143.3701  165.0744 C.3     1  UNL1        0.2542
     15 C         142.1006  140.8618  165.3560 C.ar    1  UNL1        0.0245
     16 C         142.6109  139.4885  165.0340 C.ar    1  UNL1        0.0200
     17 C         143.1311  138.6057  166.1294 C.ar    1  UNL1        0.1019
     18 N         143.1411  139.0962  167.5470 N.ar    1  UNL1       -0.2076
     19 C         142.6308  140.4695  167.8690 C.ar    1  UNL1        0.2598
     20 C         142.1105  141.3523  166.7734 C.ar    1  UNL1        0.1879
     21 O         142.6407  140.9600  169.2864 O.3     1  UNL1       -0.4541
     22 C         143.6474  141.9847  169.7184 C.3     1  UNL1        0.2543
     23 O         141.6003  142.7256  167.0955 O.3     1  UNL1       -0.4670
     24 C         140.3940  142.8911  167.9716 C.3     1  UNL1        0.2527
     25 C         140.2156  142.3563  164.3747 C.3     1  UNL1        0.1161
     26 O         140.8342  143.7199  164.4633 O.3     1  UNL1       -0.3820
     27 H         140.1354  144.3868  164.5520 H       1  UNL1        0.2107
     28 C         138.8603  138.9439  162.8684 C.ar    1  UNL1        0.1078
     29 C         139.4789  140.3075  162.9570 C.ar    1  UNL1        0.0236
     30 C         139.5969  140.9927  164.2861 C.ar    1  UNL1        0.0072
     31 C         139.0964  140.3141  165.5266 C.ar    1  UNL1        0.0323
     32 C         138.4778  138.9505  165.4380 C.ar    1  UNL1        0.1321
     33 N         138.3597  138.2654  164.1089 N.ar    1  UNL1       -0.2245
     34 N         137.9772  138.2720  166.6787 N.pl3   1  UNL1       -0.2897
     35 C         137.5468  136.8360  166.6265 C.3     1  UNL1        0.1136
     36 C         137.9070  139.0294  167.9715 C.3     1  UNL1        0.1136
     37 S         138.7422  138.2588  161.5391 S.3     1  UNL1       -0.0949
     38 C         139.8958  138.5177  159.2257 C.3     1  UNL1        0.0130
     39 C         138.9557  139.0353  160.2736 C.3     1  UNL1        0.0637
     40 C         138.8507  142.9680  164.4888 C.3     1  UNL1        0.0491
     41 C         138.5638  144.2885  163.8375 C.3     1  UNL1        0.0750
     42 N         138.9311  144.5114  162.4003 N.3     1  UNL1       -0.2702
     43 C         139.5633  145.8049  161.9797 C.3     1  UNL1        0.0897
     44 C         138.6662  143.4406  161.3838 C.3     1  UNL1        0.0897
@<TRIPOS>BOND
     1    38    39    1
     2    39    37    1
     3    37    28    1
     4    28    29   ar
     5    29    30   ar
     6    30    25    1
     7    25    26    1
     8    25    40    1
     9    40    41    1
    10    41    42    1
    11    42    43    1
    12    42    44    1
    13    25     1    1
    14     1     2    1
    15     2     3   ar
    16     3     4   ar
    17     4     5   ar
    18     5     6   ar
    19     6     7    1
    20     6     8   ar
    21     8     9   ar
    22     9    10   ar
    23    10    11   ar
    24    11    12   ar
    25    12    13    1
    26    13    14    1
    27     1    15    1
    28    15    16   ar
    29    16    17   ar
    30    17    18   ar
    31    18    19   ar
    32    19    21    1
    33    21    22    1
    34    19    20   ar
    35    20    23    1
    36    23    24    1
    37    30    31   ar
    38    31    32   ar
    39    32    34    1
    40    34    35    1
    41    34    36    1
    42    32    33   ar
    43    33    28   ar
    44    12     2   ar
    45    20    15   ar
    46    10     4   ar
    47    26    27    1
@<TRIPOS>MOLECULE
*****
 44 47 0 0 0
SMALL
GASTEIGER

@<TRIPOS>ATOM
      1 C         141.7877  140.6193  162.2995 C.3     1  UNL1        0.0808
      2 C         141.3575  139.9860  161.0095 C.ar    1  UNL1        0.0375
      3 C         142.2439  138.9813  160.3350 C.ar    1  UNL1        0.0023
      4 C         141.8137  138.3481  159.0451 C.ar    1  UNL1        0.0181
      5 C         142.7001  137.3433  158.3706 C.ar    1  UNL1        0.0082
      6 C         142.2698  136.7101  157.0806 C.ar    1  UNL1        0.0347
      7 BR        143.1562  135.7054  156.4061 Br      1  UNL1       -0.0490
      8 C         140.9533  137.0815  156.4652 C.ar    1  UNL1        0.0082
      9 C         140.0670  138.0862  157.1397 C.ar    1  UNL1        0.0197
     10 C         140.4971  138.7195  158.4296 C.ar    1  UNL1        0.0844
     11 N         139.6108  139.7242  159.1041 N.ar    1  UNL1       -0.2119
     12 C         140.0410  140.3575  160.3941 C.ar    1  UNL1        0.2211
     13 O         139.1547  141.3622  161.0686 O.3     1  UNL1       -0.4563
     14 C         138.6003  142.2251  159.9740 C.3     1  UNL1        0.2542
     15 C         140.8252  140.7144  163.4459 C.ar    1  UNL1        0.0245
     16 C         140.5857  142.0346  164.1166 C.ar    1  UNL1        0.0200
     17 C         139.6231  142.1297  165.2630 C.ar    1  UNL1        0.1019
     18 N         138.9000  140.9047  165.7389 N.ar    1  UNL1       -0.2076
     19 C         139.1395  139.5845  165.0682 C.ar    1  UNL1        0.2598
     20 C         140.1021  139.4894  163.9217 C.ar    1  UNL1        0.1879
     21 O         138.4165  138.3595  165.5440 O.3     1  UNL1       -0.4541
     22 C         137.6903  138.3795  166.8564 C.3     1  UNL1        0.2543
     23 O         140.3416  138.1692  163.2511 O.3     1  UNL1       -0.4670
     24 C         141.3000  137.1849  163.8534 C.3     1  UNL1        0.2527
     25 C         143.1805  141.1574  162.4429 C.3     1  UNL1        0.1161
     26 O         143.4470  140.1742  163.5440 O.3     1  UNL1       -0.3820
     27 H         144.3536  140.2904  163.8687 H       1  UNL1        0.2107
     28 C         141.6782  144.2478  160.4573 C.ar    1  UNL1        0.1078
     29 C         141.9447  143.2646  161.5584 C.ar    1  UNL1        0.0236
     30 C         142.9141  142.1406  161.3419 C.ar    1  UNL1        0.0072
     31 C         143.6170  141.9998  160.0243 C.ar    1  UNL1        0.0323
     32 C         143.3505  142.9830  158.9232 C.ar    1  UNL1        0.1321
     33 N         142.3811  144.1070  159.1397 N.ar    1  UNL1       -0.2245
     34 N         144.0535  142.8422  157.6056 N.pl3   1  UNL1       -0.2897
     35 C         145.4934  142.4239  157.5648 C.3     1  UNL1        0.1136
     36 C         143.3166  143.1197  156.3290 C.3     1  UNL1        0.1136
     37 S         140.7087  145.3718  160.6739 S.3     1  UNL1       -0.0949
     38 C         139.0003  145.1057  162.6131 C.3     1  UNL1        0.0130
     39 C         140.2557  145.7144  162.0622 C.3     1  UNL1        0.0637
     40 C         144.5733  141.6955  162.5863 C.3     1  UNL1        0.0491
     41 C         145.0625  142.1632  163.9251 C.3     1  UNL1        0.0750
     42 N         144.2068  143.0667  164.7625 N.3     1  UNL1       -0.2702
     43 C         143.6281  142.5675  166.0532 C.3     1  UNL1        0.0897
     44 C         143.9297  144.4695  164.3092 C.3     1  UNL1        0.0897
@<TRIPOS>BOND
     1    38    39    1
     2    39    37    1
     3    37    28    1
     4    28    29   ar
     5    29    30   ar
     6    30    25    1
     7    25    26    1
     8    25    40    1
     9    40    41    1
    10    41    42    1
    11    42    43    1
    12    42    44    1
    13    25     1    1
    14     1     2    1
    15     2     3   ar
    16     3     4   ar
    17     4     5   ar
    18     5     6   ar
    19     6     7    1
    20     6     8   ar
    21     8     9   ar
    22     9    10   ar
    23    10    11   ar
    24    11    12   ar
    25    12    13    1
    26    13    14    1
    27     1    15    1
    28    15    16   ar
    29    16    17   ar
    30    17    18   ar
    31    18    19   ar
    32    19    21    1
    33    21    22    1
    34    19    20   ar
    35    20    23    1
    36    23    24    1
    37    30    31   ar
    38    31    32   ar
    39    32    34    1
    40    34    35    1
    41    34    36    1
    42    32    33   ar
    43    33    28   ar
    44    12     2   ar
    45    20    15   ar
    46    10     4   ar
    47    26    27    1
@<TRIPOS>MOLECULE
*****
 44 47 0 0 0
SMALL
GASTEIGER

@<TRIPOS>ATOM
      1 C         141.6954  141.4377  159.2125 C.3     1  UNL1        0.0808
      2 C         141.4239  140.4264  160.2867 C.ar    1  UNL1        0.0375
      3 C         142.2785  140.3936  161.5190 C.ar    1  UNL1        0.0023
      4 C         142.0071  139.3824  162.5932 C.ar    1  UNL1        0.0181
      5 C         142.8617  139.3495  163.8255 C.ar    1  UNL1        0.0082
      6 C         142.5903  138.3383  164.8997 C.ar    1  UNL1        0.0347
      7 BR        143.4449  138.3054  166.1320 Br      1  UNL1       -0.0490
      8 C         141.4643  137.3600  164.7415 C.ar    1  UNL1        0.0082
      9 C         140.6097  137.3929  163.5092 C.ar    1  UNL1        0.0197
     10 C         140.8811  138.4041  162.4351 C.ar    1  UNL1        0.0844
     11 N         140.0265  138.4369  161.2028 N.ar    1  UNL1       -0.2119
     12 C         140.2979  139.4482  160.1286 C.ar    1  UNL1        0.2211
     13 O         139.4433  139.4810  158.8963 O.3     1  UNL1       -0.4563
     14 C         138.0912  139.9521  159.3434 C.3     1  UNL1        0.2542
     15 C         143.0105  141.4310  158.4913 C.ar    1  UNL1        0.0245
     16 C         143.9930  142.5427  158.7126 C.ar    1  UNL1        0.0200
     17 C         145.3081  142.5360  157.9914 C.ar    1  UNL1        0.1019
     18 N         145.6409  141.4176  157.0487 N.ar    1  UNL1       -0.2076
     19 C         144.6585  140.3060  156.8273 C.ar    1  UNL1        0.2598
     20 C         143.3432  140.3127  157.5486 C.ar    1  UNL1        0.1879
     21 O         144.9912  139.1876  155.8847 O.3     1  UNL1       -0.4541
     22 C         144.4815  139.2189  154.4743 C.3     1  UNL1        0.2543
     23 O         142.3608  139.2010  157.3273 O.3     1  UNL1       -0.4670
     24 C         142.6488  137.8285  157.8596 C.3     1  UNL1        0.2527
     25 C         140.6516  142.4555  158.8597 C.3     1  UNL1        0.1161
     26 O         140.6435  141.9568  157.4450 O.3     1  UNL1       -0.3820
     27 H         140.0054  142.4699  156.9249 H       1  UNL1        0.2107
     28 C         141.8916  144.1214  162.2415 C.ar    1  UNL1        0.1078
     29 C         141.8835  143.6227  160.8269 C.ar    1  UNL1        0.0236
     30 C         140.6597  142.9542  160.2743 C.ar    1  UNL1        0.0072
     31 C         139.4439  142.7845  161.1363 C.ar    1  UNL1        0.0323
     32 C         139.4520  143.2832  162.5510 C.ar    1  UNL1        0.1321
     33 N         140.6758  143.9517  163.1036 N.ar    1  UNL1       -0.2245
     34 N         138.2362  143.1135  163.4130 N.pl3   1  UNL1       -0.2897
     35 C         137.3304  141.9355  163.2085 C.3     1  UNL1        0.1136
     36 C         137.9263  144.1217  164.4795 C.3     1  UNL1        0.1136
     37 S         143.1155  144.7899  162.7941 S.3     1  UNL1       -0.0949
     38 C         144.5345  142.7333  163.5060 C.3     1  UNL1        0.0130
     39 C         144.4253  144.0591  162.8130 C.3     1  UNL1        0.0637
     40 C         139.6078  143.4734  158.5068 C.3     1  UNL1        0.0491
     41 C         139.7591  144.3039  157.2669 C.3     1  UNL1        0.0750
     42 N         141.0883  144.9114  156.9286 N.3     1  UNL1       -0.2702
     43 C         141.7540  144.5813  155.6257 C.3     1  UNL1        0.0897
     44 C         141.7517  145.8490  157.8935 C.3     1  UNL1        0.0897
@<TRIPOS>BOND
     1    38    39    1
     2    39    37    1
     3    37    28    1
     4    28    29   ar
     5    29    30   ar
     6    30    25    1
     7    25    26    1
     8    25    40    1
     9    40    41    1
    10    41    42    1
    11    42    43    1
    12    42    44    1
    13    25     1    1
    14     1     2    1
    15     2     3   ar
    16     3     4   ar
    17     4     5   ar
    18     5     6   ar
    19     6     7    1
    20     6     8   ar
    21     8     9   ar
    22     9    10   ar
    23    10    11   ar
    24    11    12   ar
    25    12    13    1
    26    13    14    1
    27     1    15    1
    28    15    16   ar
    29    16    17   ar
    30    17    18   ar
    31    18    19   ar
    32    19    21    1
    33    21    22    1
    34    19    20   ar
    35    20    23    1
    36    23    24    1
    37    30    31   ar
    38    31    32   ar
    39    32    34    1
    40    34    35    1
    41    34    36    1
    42    32    33   ar
    43    33    28   ar
    44    12     2   ar
    45    20    15   ar
    46    10     4   ar
    47    26    27    1
