@<TRIPOS>MOLECULE
*****
 31 34 0 0 0
SMALL
GASTEIGER

@<TRIPOS>ATOM
      1 N         140.0683  141.0758  167.7614 N.ar    1  UNL1       -0.2465
      2 C         139.4718  139.7210  168.0038 C.ar    1  UNL1        0.1025
      3 C         138.6592  139.3500  166.7988 C.ar    1  UNL1        0.1051
      4 C         138.7535  140.4756  165.8116 C.ar    1  UNL1        0.1578
      5 N         139.6244  141.5421  166.4066 N.ar    1  UNL1       -0.1539
      6 C         142.3173  141.3043  169.0421 C.3     1  UNL1        0.1187
      7 C         143.2023  142.0601  169.9884 C.3     1  UNL1        0.0492
      8 C         142.7234  143.3432  170.6003 C.3     1  UNL1        0.1434
      9 O         141.3595  143.8705  170.2659 O.3     1  UNL1       -0.3516
     10 C         140.4745  143.1147  169.3197 C.3     1  UNL1        0.1674
     11 C         140.9534  141.8316  168.7077 C.3     1  UNL1        0.1488
     12 N         143.2750  138.7382  167.8183 N.1     1  UNL1       -0.1958
     13 C         142.7961  140.0213  168.4302 C.1     1  UNL1        0.0742
     14 C         137.8878  138.0770  166.6134 C.2     1  UNL1        0.2470
     15 N         136.8669  137.6637  167.6316 N.am    1  UNL1       -0.3252
     16 O         138.1372  137.2174  165.4097 O.2     1  UNL1       -0.2702
     17 H         136.7031  138.2279  168.4216 H       1  UNL1        0.1453
     18 H         136.3605  136.8282  167.5099 H       1  UNL1        0.1453
     19 N         138.0930  140.5257  164.4658 N.pl3   1  UNL1       -0.2964
     20 H         137.2823  139.9937  164.2953 H       1  UNL1        0.1537
     21 C         138.6675  141.3864  163.3800 C.ar    1  UNL1        0.0495
     22 C         137.9709  142.6529  162.9792 C.ar    1  UNL1        0.0162
     23 C         138.5455  143.5135  161.8934 C.ar    1  UNL1        0.0205
     24 C         139.8166  143.1076  161.2083 C.ar    1  UNL1        0.0846
     25 C         140.5132  141.8411  161.6090 C.ar    1  UNL1        0.0205
     26 C         139.9386  140.9804  162.6948 C.ar    1  UNL1        0.0162
     27 N         140.3913  143.9683  160.1223 N.ar    1  UNL1       -0.2089
     28 C         139.8494  144.1113  158.7309 C.ar    1  UNL1        0.1245
     29 C         140.7319  145.0684  157.9860 C.ar    1  UNL1        0.1445
     30 N         141.8191  145.5170  158.9168 N.ar    1  UNL1       -0.1268
     31 N         141.6087  144.8371  160.2372 N.ar    1  UNL1       -0.0595
@<TRIPOS>BOND
     1    12    13    3
     2     6    13    1
     3     6     7    1
     4     7     8    1
     5     8     9    1
     6     9    10    1
     7    10    11    1
     8    11     1    1
     9     1     2   ar
    10     2     3   ar
    11     3    14    1
    12    14    15   am
    13    14    16    2
    14     3     4   ar
    15     4    19    1
    16    19    21    1
    17    21    22   ar
    18    22    23   ar
    19    23    24   ar
    20    24    27    1
    21    27    28   ar
    22    28    29   ar
    23    29    30   ar
    24    30    31   ar
    25    24    25   ar
    26    25    26   ar
    27     4     5   ar
    28    11     6    1
    29     5     1   ar
    30    26    21   ar
    31    31    27   ar
    32    15    17    1
    33    15    18    1
    34    19    20    1
@<TRIPOS>MOLECULE
*****
 31 34 0 0 0
SMALL
GASTEIGER

@<TRIPOS>ATOM
      1 N         140.3986  143.0498  165.8282 N.ar    1  UNL1       -0.2465
      2 C         139.2676  143.6090  165.0170 C.ar    1  UNL1        0.1025
      3 C         139.8550  144.3733  163.8677 C.ar    1  UNL1        0.1051
      4 C         141.3492  144.2865  163.9687 C.ar    1  UNL1        0.1578
      5 N         141.6851  143.4685  165.1803 N.ar    1  UNL1       -0.1539
      6 C         139.9250  140.7613  166.9632 C.3     1  UNL1        0.1187
      7 C         139.7928  139.9295  168.2045 C.3     1  UNL1        0.0492
      8 C         140.0021  140.5545  169.5519 C.3     1  UNL1        0.1434
      9 O         140.3436  142.0112  169.6581 O.3     1  UNL1       -0.3516
     10 C         140.4758  142.8429  168.4169 C.3     1  UNL1        0.1674
     11 C         140.2664  142.2180  167.0695 C.3     1  UNL1        0.1488
     12 N         139.5063  139.5114  164.2684 N.1     1  UNL1       -0.1958
     13 C         139.7156  140.1363  165.6158 C.1     1  UNL1        0.0742
     14 C         139.0838  145.0972  162.8042 C.2     1  UNL1        0.2470
     15 N         137.6815  144.6770  162.4772 N.am    1  UNL1       -0.3252
     16 O         139.7148  146.2415  162.0677 O.2     1  UNL1       -0.2702
     17 H         137.2673  143.9259  162.9606 H       1  UNL1        0.1453
     18 H         137.1753  145.1521  161.7792 H       1  UNL1        0.1453
     19 N         142.3343  144.9084  163.0239 N.pl3   1  UNL1       -0.2964
     20 H         142.6288  145.8377  163.1611 H       1  UNL1        0.1537
     21 C         142.8707  144.1143  161.8699 C.ar    1  UNL1        0.0495
     22 C         144.2000  143.4288  161.9846 C.ar    1  UNL1        0.0162
     23 C         144.7363  142.6348  160.8306 C.ar    1  UNL1        0.0205
     24 C         143.9435  142.5263  159.5619 C.ar    1  UNL1        0.0846
     25 C         142.6143  143.2118  159.4472 C.ar    1  UNL1        0.0205
     26 C         142.0779  144.0058  160.6012 C.ar    1  UNL1        0.0162
     27 N         144.4799  141.7322  158.4078 N.ar    1  UNL1       -0.2089
     28 C         145.3348  142.2617  157.2948 C.ar    1  UNL1        0.1245
     29 C         145.6388  141.1260  156.3633 C.ar    1  UNL1        0.1445
     30 N         144.9718  139.8946  156.9005 N.ar    1  UNL1       -0.1268
     31 N         144.2555  140.2692  158.1641 N.ar    1  UNL1       -0.0595
@<TRIPOS>BOND
     1    12    13    3
     2     6    13    1
     3     6     7    1
     4     7     8    1
     5     8     9    1
     6     9    10    1
     7    10    11    1
     8    11     1    1
     9     1     2   ar
    10     2     3   ar
    11     3    14    1
    12    14    15   am
    13    14    16    2
    14     3     4   ar
    15     4    19    1
    16    19    21    1
    17    21    22   ar
    18    22    23   ar
    19    23    24   ar
    20    24    27    1
    21    27    28   ar
    22    28    29   ar
    23    29    30   ar
    24    30    31   ar
    25    24    25   ar
    26    25    26   ar
    27     4     5   ar
    28    11     6    1
    29     5     1   ar
    30    26    21   ar
    31    31    27   ar
    32    15    17    1
    33    15    18    1
    34    19    20    1
@<TRIPOS>MOLECULE
*****
 31 34 0 0 0
SMALL
GASTEIGER

@<TRIPOS>ATOM
      1 N         140.5100  141.5764  167.0433 N.ar    1  UNL1       -0.2465
      2 C         140.6624  142.9321  166.4196 C.ar    1  UNL1        0.1025
      3 C         139.6259  143.0666  165.3437 C.ar    1  UNL1        0.1051
      4 C         138.8329  141.7940  165.3024 C.ar    1  UNL1        0.1578
      5 N         139.3793  140.8731  166.3528 N.ar    1  UNL1       -0.1539
      6 C         141.4464  141.7657  169.4593 C.3     1  UNL1        0.1187
      7 C         142.2786  141.2107  170.5771 C.3     1  UNL1        0.0492
      8 C         143.0065  139.9117  170.3968 C.3     1  UNL1        0.1434
      9 O         142.9022  139.1675  169.0986 O.3     1  UNL1       -0.3516
     10 C         142.0700  139.7224  167.9808 C.3     1  UNL1        0.1674
     11 C         141.3422  141.0215  168.1612 C.3     1  UNL1        0.1488
     12 N         139.9907  144.3639  169.8201 N.1     1  UNL1       -0.1958
     13 C         140.7186  143.0648  169.6397 C.1     1  UNL1        0.0742
     14 C         139.4188  144.2635  164.4637 C.2     1  UNL1        0.2470
     15 N         140.5881  145.1173  164.0713 N.am    1  UNL1       -0.3252
     16 O         138.0425  144.6067  163.9760 O.2     1  UNL1       -0.2702
     17 H         141.4914  144.8920  164.3913 H       1  UNL1        0.1453
     18 H         140.4521  145.9028  163.4936 H       1  UNL1        0.1453
     19 N         137.6935  141.4949  164.3738 N.pl3   1  UNL1       -0.2964
     20 H         136.7654  141.6259  164.6751 H       1  UNL1        0.1537
     21 C         137.9681  140.9962  162.9860 C.ar    1  UNL1        0.0495
     22 C         138.0871  139.5234  162.7282 C.ar    1  UNL1        0.0162
     23 C         138.3618  139.0248  161.3404 C.ar    1  UNL1        0.0205
     24 C         138.5174  139.9990  160.2106 C.ar    1  UNL1        0.0846
     25 C         138.3984  141.4718  160.4684 C.ar    1  UNL1        0.0205
     26 C         138.1238  141.9704  161.8561 C.ar    1  UNL1        0.0162
     27 N         138.7921  139.5003  158.8227 N.ar    1  UNL1       -0.2089
     28 C         139.8439  138.5032  158.4361 C.ar    1  UNL1        0.1245
     29 C         139.7650  138.2979  156.9524 C.ar    1  UNL1        0.1445
     30 N         138.6644  139.1681  156.4219 N.ar    1  UNL1       -0.1268
     31 N         138.0631  139.9112  157.5778 N.ar    1  UNL1       -0.0595
@<TRIPOS>BOND
     1    12    13    3
     2     6    13    1
     3     6     7    1
     4     7     8    1
     5     8     9    1
     6     9    10    1
     7    10    11    1
     8    11     1    1
     9     1     2   ar
    10     2     3   ar
    11     3    14    1
    12    14    15   am
    13    14    16    2
    14     3     4   ar
    15     4    19    1
    16    19    21    1
    17    21    22   ar
    18    22    23   ar
    19    23    24   ar
    20    24    27    1
    21    27    28   ar
    22    28    29   ar
    23    29    30   ar
    24    30    31   ar
    25    24    25   ar
    26    25    26   ar
    27     4     5   ar
    28    11     6    1
    29     5     1   ar
    30    26    21   ar
    31    31    27   ar
    32    15    17    1
    33    15    18    1
    34    19    20    1
@<TRIPOS>MOLECULE
*****
 31 34 0 0 0
SMALL
GASTEIGER

@<TRIPOS>ATOM
      1 N         139.5826  141.0187  166.2704 N.ar    1  UNL1       -0.2465
      2 C         139.5959  142.4472  165.8130 C.ar    1  UNL1        0.1025
      3 C         138.7986  142.5355  164.5456 C.ar    1  UNL1        0.1051
      4 C         138.2924  141.1615  164.2197 C.ar    1  UNL1        0.1578
      5 N         138.7770  140.2242  165.2857 N.ar    1  UNL1       -0.1539
      6 C         141.7230  140.1649  167.4704 C.3     1  UNL1        0.1187
      7 C         142.3969  139.6257  168.6972 C.3     1  UNL1        0.0492
      8 C         141.6044  139.4009  169.9508 C.3     1  UNL1        0.1434
      9 O         140.1380  139.7154  169.9776 O.3     1  UNL1       -0.3516
     10 C         139.4641  140.2546  168.7508 C.3     1  UNL1        0.1674
     11 C         140.2566  140.4794  167.4972 C.3     1  UNL1        0.1488
     12 N         143.3079  140.6145  164.9633 N.1     1  UNL1       -0.1958
     13 C         142.5155  140.3897  166.2169 C.1     1  UNL1        0.0742
     14 C         138.5508  143.7793  163.7446 C.2     1  UNL1        0.2470
     15 N         139.1977  145.0716  164.1467 N.am    1  UNL1       -0.3252
     16 O         137.6562  143.7309  162.5416 O.2     1  UNL1       -0.2702
     17 H         139.7848  145.1034  164.9363 H       1  UNL1        0.1453
     18 H         139.0350  145.8879  163.6210 H       1  UNL1        0.1453
     19 N         137.4496  140.7903  163.0357 N.pl3   1  UNL1       -0.2964
     20 H         136.4792  140.9554  163.0510 H       1  UNL1        0.1537
     21 C         138.0854  140.1673  161.8283 C.ar    1  UNL1        0.0495
     22 C         138.1113  140.9115  160.5262 C.ar    1  UNL1        0.0162
     23 C         138.7471  140.2885  159.3189 C.ar    1  UNL1        0.0205
     24 C         139.3571  138.9215  159.4137 C.ar    1  UNL1        0.0846
     25 C         139.3312  138.1774  160.7158 C.ar    1  UNL1        0.0205
     26 C         138.6954  138.8003  161.9232 C.ar    1  UNL1        0.0162
     27 N         139.9929  138.2985  158.2064 N.ar    1  UNL1       -0.2089
     28 C         141.4546  138.0122  158.0284 C.ar    1  UNL1        0.1245
     29 C         141.6437  137.3893  156.6771 C.ar    1  UNL1        0.1445
     30 N         140.2990  137.2904  156.0199 N.ar    1  UNL1       -0.1268
     31 N         139.2787  137.8524  156.9650 N.ar    1  UNL1       -0.0595
@<TRIPOS>BOND
     1    12    13    3
     2     6    13    1
     3     6     7    1
     4     7     8    1
     5     8     9    1
     6     9    10    1
     7    10    11    1
     8    11     1    1
     9     1     2   ar
    10     2     3   ar
    11     3    14    1
    12    14    15   am
    13    14    16    2
    14     3     4   ar
    15     4    19    1
    16    19    21    1
    17    21    22   ar
    18    22    23   ar
    19    23    24   ar
    20    24    27    1
    21    27    28   ar
    22    28    29   ar
    23    29    30   ar
    24    30    31   ar
    25    24    25   ar
    26    25    26   ar
    27     4     5   ar
    28    11     6    1
    29     5     1   ar
    30    26    21   ar
    31    31    27   ar
    32    15    17    1
    33    15    18    1
    34    19    20    1
@<TRIPOS>MOLECULE
*****
 31 34 0 0 0
SMALL
GASTEIGER

@<TRIPOS>ATOM
      1 N         140.7280  140.7549  167.1088 N.ar    1  UNL1       -0.2465
      2 C         141.0356  139.4137  166.5116 C.ar    1  UNL1        0.1025
      3 C         140.0092  139.1305  165.4550 C.ar    1  UNL1        0.1051
      4 C         139.0673  140.2966  165.3993 C.ar    1  UNL1        0.1578
      5 N         139.5116  141.3005  166.4214 N.ar    1  UNL1       -0.1539
      6 C         140.9851  141.4095  169.6099 C.3     1  UNL1        0.1187
      7 C         141.7583  142.0863  170.7027 C.3     1  UNL1        0.0492
      8 C         143.0475  142.7851  170.3872 C.3     1  UNL1        0.1434
      9 O         143.5636  142.8073  168.9790 O.3     1  UNL1       -0.3516
     10 C         142.7904  142.1305  167.8862 C.3     1  UNL1        0.1674
     11 C         141.5012  141.4316  168.2017 C.3     1  UNL1        0.1488
     12 N         138.4067  140.0118  170.2408 N.1     1  UNL1       -0.1958
     13 C         139.6959  140.7106  169.9254 C.1     1  UNL1        0.0742
     14 C         139.9373  137.8975  164.6037 C.2     1  UNL1        0.2470
     15 N         141.1499  137.0308  164.4350 N.am    1  UNL1       -0.3252
     16 O         138.6529  137.5314  163.9210 O.2     1  UNL1       -0.2702
     17 H         141.9929  137.2711  164.8831 H       1  UNL1        0.1453
     18 H         141.1027  136.2216  163.8762 H       1  UNL1        0.1453
     19 N         137.8882  140.4345  164.4824 N.pl3   1  UNL1       -0.2964
     20 H         136.9951  140.1491  164.7827 H       1  UNL1        0.1537
     21 C         138.0698  141.0073  163.1080 C.ar    1  UNL1        0.0495
     22 C         137.8808  140.1363  161.9015 C.ar    1  UNL1        0.0162
     23 C         138.0624  140.7092  160.5272 C.ar    1  UNL1        0.0205
     24 C         138.4331  142.1529  160.3594 C.ar    1  UNL1        0.0846
     25 C         138.6221  143.0238  161.5658 C.ar    1  UNL1        0.0205
     26 C         138.4405  142.4510  162.9402 C.ar    1  UNL1        0.0162
     27 N         138.6148  142.7258  158.9850 N.ar    1  UNL1       -0.2089
     28 C         139.7119  143.6537  158.5544 C.ar    1  UNL1        0.1245
     29 C         139.5063  143.9726  157.1032 C.ar    1  UNL1        0.1445
     30 N         138.2822  143.2419  156.6369 N.ar    1  UNL1       -0.1268
     31 N         137.7312  142.4713  157.7998 N.ar    1  UNL1       -0.0595
@<TRIPOS>BOND
     1    12    13    3
     2     6    13    1
     3     6     7    1
     4     7     8    1
     5     8     9    1
     6     9    10    1
     7    10    11    1
     8    11     1    1
     9     1     2   ar
    10     2     3   ar
    11     3    14    1
    12    14    15   am
    13    14    16    2
    14     3     4   ar
    15     4    19    1
    16    19    21    1
    17    21    22   ar
    18    22    23   ar
    19    23    24   ar
    20    24    27    1
    21    27    28   ar
    22    28    29   ar
    23    29    30   ar
    24    30    31   ar
    25    24    25   ar
    26    25    26   ar
    27     4     5   ar
    28    11     6    1
    29     5     1   ar
    30    26    21   ar
    31    31    27   ar
    32    15    17    1
    33    15    18    1
    34    19    20    1
@<TRIPOS>MOLECULE
*****
 31 34 0 0 0
SMALL
GASTEIGER

@<TRIPOS>ATOM
      1 N         142.8901  139.2255  160.5182 N.ar    1  UNL1       -0.2465
      2 C         143.5694  140.5627  160.5394 C.ar    1  UNL1        0.1025
      3 C         144.3326  140.6745  161.8259 C.ar    1  UNL1        0.1051
      4 C         144.1250  139.4064  162.5998 C.ar    1  UNL1        0.1578
      5 N         143.2334  138.5109  161.7916 N.ar    1  UNL1       -0.1539
      6 C         140.5513  139.0001  159.4093 C.3     1  UNL1        0.1187
      7 C         139.6814  138.4705  158.3081 C.3     1  UNL1        0.0492
      8 C         140.2803  137.6367  157.2145 C.3     1  UNL1        0.1434
      9 O         141.7491  137.3324  157.2221 O.3     1  UNL1       -0.3516
     10 C         142.6190  137.8620  158.3233 C.3     1  UNL1        0.1674
     11 C         142.0201  138.6959  159.4169 C.3     1  UNL1        0.1488
     12 N         139.3536  140.6679  161.5966 N.1     1  UNL1       -0.1958
     13 C         139.9525  139.8340  160.5030 C.1     1  UNL1        0.0742
     14 C         145.1585  141.8483  162.2620 C.2     1  UNL1        0.2470
     15 N         144.9272  143.1974  161.6484 N.am    1  UNL1       -0.3252
     16 O         146.2157  141.6730  163.3115 O.2     1  UNL1       -0.2702
     17 H         144.2334  143.3125  160.9595 H       1  UNL1        0.1453
     18 H         145.4693  143.9678  161.9346 H       1  UNL1        0.1453
     19 N         144.7067  139.0895  163.9456 N.pl3   1  UNL1       -0.2964
     20 H         145.5950  138.6702  164.0115 H       1  UNL1        0.1537
     21 C         143.9349  139.4114  165.1909 C.ar    1  UNL1        0.0495
     22 C         143.3299  140.7726  165.3674 C.ar    1  UNL1        0.0162
     23 C         142.5582  141.0944  166.6127 C.ar    1  UNL1        0.0205
     24 C         142.3915  140.0552  167.6815 C.ar    1  UNL1        0.0846
     25 C         142.9966  138.6941  167.5049 C.ar    1  UNL1        0.0205
     26 C         143.7683  138.3722  166.2596 C.ar    1  UNL1        0.0162
     27 N         141.6198  140.3771  168.9268 N.ar    1  UNL1       -0.2089
     28 C         142.0354  141.3427  169.9969 C.ar    1  UNL1        0.1245
     29 C         140.9694  141.3522  171.0520 C.ar    1  UNL1        0.1445
     30 N         139.8950  140.3926  170.6343 N.ar    1  UNL1       -0.1268
     31 N         140.2969  139.7899  169.3208 N.ar    1  UNL1       -0.0595
@<TRIPOS>BOND
     1    12    13    3
     2     6    13    1
     3     6     7    1
     4     7     8    1
     5     8     9    1
     6     9    10    1
     7    10    11    1
     8    11     1    1
     9     1     2   ar
    10     2     3   ar
    11     3    14    1
    12    14    15   am
    13    14    16    2
    14     3     4   ar
    15     4    19    1
    16    19    21    1
    17    21    22   ar
    18    22    23   ar
    19    23    24   ar
    20    24    27    1
    21    27    28   ar
    22    28    29   ar
    23    29    30   ar
    24    30    31   ar
    25    24    25   ar
    26    25    26   ar
    27     4     5   ar
    28    11     6    1
    29     5     1   ar
    30    26    21   ar
    31    31    27   ar
    32    15    17    1
    33    15    18    1
    34    19    20    1
@<TRIPOS>MOLECULE
*****
 31 34 0 0 0
SMALL
GASTEIGER

@<TRIPOS>ATOM
      1 N         142.2478  141.2971  166.5242 N.ar    1  UNL1       -0.2465
      2 C         143.2228  140.3882  165.8363 C.ar    1  UNL1        0.1025
      3 C         143.9002  141.1713  164.7510 C.ar    1  UNL1        0.1051
      4 C         143.3439  142.5642  164.7681 C.ar    1  UNL1        0.1578
      5 N         142.3226  142.6420  165.8640 N.ar    1  UNL1       -0.1539
      6 C         141.7378  141.3020  169.0717 C.3     1  UNL1        0.1187
      7 C         140.8447  140.9312  170.2184 C.3     1  UNL1        0.0492
      8 C         139.5687  140.1847  169.9644 C.3     1  UNL1        0.1434
      9 O         139.1857  139.8091  168.5636 O.3     1  UNL1       -0.3516
     10 C         140.0788  140.1798  167.4169 C.3     1  UNL1        0.1674
     11 C         141.3548  140.9263  167.6710 C.3     1  UNL1        0.1488
     12 N         144.2898  142.7949  169.5798 N.1     1  UNL1       -0.1958
     13 C         143.0138  142.0485  169.3258 C.1     1  UNL1        0.0742
     14 C         144.9497  140.6525  163.8131 C.2     1  UNL1        0.2470
     15 N         144.9280  139.2153  163.3842 N.am    1  UNL1       -0.3252
     16 O         146.0209  141.5709  163.3043 O.2     1  UNL1       -0.2702
     17 H         144.2249  138.6125  163.7182 H       1  UNL1        0.1453
     18 H         145.6168  138.8749  162.7687 H       1  UNL1        0.1453
     19 N         143.7393  143.6829  163.8504 N.pl3   1  UNL1       -0.2964
     20 H         144.4892  144.2742  164.0898 H       1  UNL1        0.1537
     21 C         142.9922  143.9007  162.5681 C.ar    1  UNL1        0.0495
     22 C         143.4572  143.2350  161.3068 C.ar    1  UNL1        0.0162
     23 C         142.7101  143.4528  160.0246 C.ar    1  UNL1        0.0205
     24 C         141.4980  144.3362  160.0035 C.ar    1  UNL1        0.0846
     25 C         141.0331  145.0018  161.2646 C.ar    1  UNL1        0.0205
     26 C         141.7802  144.7841  162.5470 C.ar    1  UNL1        0.0162
     27 N         140.7509  144.5540  158.7211 N.ar    1  UNL1       -0.2089
     28 C         139.9345  143.5289  157.9912 C.ar    1  UNL1        0.1245
     29 C         139.3681  144.1765  156.7626 C.ar    1  UNL1        0.1445
     30 N         139.8343  145.6019  156.7330 N.ar    1  UNL1       -0.1268
     31 N         140.6889  145.8352  157.9435 N.ar    1  UNL1       -0.0595
@<TRIPOS>BOND
     1    12    13    3
     2     6    13    1
     3     6     7    1
     4     7     8    1
     5     8     9    1
     6     9    10    1
     7    10    11    1
     8    11     1    1
     9     1     2   ar
    10     2     3   ar
    11     3    14    1
    12    14    15   am
    13    14    16    2
    14     3     4   ar
    15     4    19    1
    16    19    21    1
    17    21    22   ar
    18    22    23   ar
    19    23    24   ar
    20    24    27    1
    21    27    28   ar
    22    28    29   ar
    23    29    30   ar
    24    30    31   ar
    25    24    25   ar
    26    25    26   ar
    27     4     5   ar
    28    11     6    1
    29     5     1   ar
    30    26    21   ar
    31    31    27   ar
    32    15    17    1
    33    15    18    1
    34    19    20    1
@<TRIPOS>MOLECULE
*****
 31 34 0 0 0
SMALL
GASTEIGER

@<TRIPOS>ATOM
      1 N         139.4073  141.9310  160.6788 N.ar    1  UNL1       -0.2465
      2 C         140.0274  140.5652  160.6728 C.ar    1  UNL1        0.1025
      3 C         139.4791  139.8021  161.8420 C.ar    1  UNL1        0.1051
      4 C         138.5201  140.6963  162.5707 C.ar    1  UNL1        0.1578
      5 N         138.4757  142.0120  161.8517 N.ar    1  UNL1       -0.1539
      6 C         140.5555  144.1776  160.0587 C.3     1  UNL1        0.1187
      7 C         140.8204  145.2705  159.0661 C.3     1  UNL1        0.0492
      8 C         140.2020  145.2098  157.7009 C.3     1  UNL1        0.1434
      9 O         139.3186  144.0562  157.3283 O.3     1  UNL1       -0.3516
     10 C         139.0537  142.9633  158.3209 C.3     1  UNL1        0.1674
     11 C         139.6722  143.0240  159.6862 C.3     1  UNL1        0.1488
     12 N         141.7925  144.2990  162.7892 N.1     1  UNL1       -0.1958
     13 C         141.1740  144.2383  161.4240 C.1     1  UNL1        0.0742
     14 C         139.8284  138.3923  162.2168 C.2     1  UNL1        0.2470
     15 N         141.1465  137.8101  161.8000 N.am    1  UNL1       -0.3252
     16 O         138.8597  137.5648  163.0085 O.2     1  UNL1       -0.2702
     17 H         141.7823  138.3532  161.2804 H       1  UNL1        0.1453
     18 H         141.3757  136.8848  162.0460 H       1  UNL1        0.1453
     19 N         137.7421  140.3377  163.8020 N.pl3   1  UNL1       -0.2964
     20 H         136.8046  140.0472  163.7247 H       1  UNL1        0.1537
     21 C         138.3925  140.4217  165.1510 C.ar    1  UNL1        0.0495
     22 C         138.1383  139.3545  166.1739 C.ar    1  UNL1        0.0162
     23 C         138.7887  139.4385  167.5229 C.ar    1  UNL1        0.0205
     24 C         139.6934  140.5897  167.8490 C.ar    1  UNL1        0.0846
     25 C         139.9476  141.6568  166.8261 C.ar    1  UNL1        0.0205
     26 C         139.2972  141.5729  165.4771 C.ar    1  UNL1        0.0162
     27 N         140.3438  140.6737  169.1981 N.ar    1  UNL1       -0.2089
     28 C         141.8098  140.5287  169.4807 C.ar    1  UNL1        0.1245
     29 C         142.0144  140.6828  170.9586 C.ar    1  UNL1        0.1445
     30 N         140.6750  140.9232  171.5894 N.ar    1  UNL1       -0.1268
     31 N         139.6425  140.9176  170.5014 N.ar    1  UNL1       -0.0595
@<TRIPOS>BOND
     1    12    13    3
     2     6    13    1
     3     6     7    1
     4     7     8    1
     5     8     9    1
     6     9    10    1
     7    10    11    1
     8    11     1    1
     9     1     2   ar
    10     2     3   ar
    11     3    14    1
    12    14    15   am
    13    14    16    2
    14     3     4   ar
    15     4    19    1
    16    19    21    1
    17    21    22   ar
    18    22    23   ar
    19    23    24   ar
    20    24    27    1
    21    27    28   ar
    22    28    29   ar
    23    29    30   ar
    24    30    31   ar
    25    24    25   ar
    26    25    26   ar
    27     4     5   ar
    28    11     6    1
    29     5     1   ar
    30    26    21   ar
    31    31    27   ar
    32    15    17    1
    33    15    18    1
    34    19    20    1
@<TRIPOS>MOLECULE
*****
 31 34 0 0 0
SMALL
GASTEIGER

@<TRIPOS>ATOM
      1 N         139.8523  139.9348  166.7017 N.ar    1  UNL1       -0.2465
      2 C         139.2722  141.0195  165.8432 C.ar    1  UNL1        0.1025
      3 C         138.9048  140.4166  164.5198 C.ar    1  UNL1        0.1051
      4 C         139.2579  138.9593  164.5603 C.ar    1  UNL1        0.1578
      5 N         139.8434  138.6615  165.9088 N.ar    1  UNL1       -0.1539
      6 C         141.7766  139.7573  168.4383 C.3     1  UNL1        0.1187
      7 C         142.2775  139.9177  169.8430 C.3     1  UNL1        0.0492
      8 C         141.3552  140.4160  170.9159 C.3     1  UNL1        0.1434
      9 O         139.9320  140.7539  170.5841 O.3     1  UNL1       -0.3516
     10 C         139.4310  140.5935  169.1794 C.3     1  UNL1        0.1674
     11 C         140.3533  140.0952  168.1065 C.3     1  UNL1        0.1488
     12 N         143.6211  138.7607  166.2925 N.1     1  UNL1       -0.1958
     13 C         142.6988  139.2590  167.3654 C.1     1  UNL1        0.0742
     14 C         138.2920  141.1434  163.3595 C.2     1  UNL1        0.2470
     15 N         136.8030  141.3050  163.2776 N.am    1  UNL1       -0.3252
     16 O         139.1682  141.7086  162.2812 O.2     1  UNL1       -0.2702
     17 H         136.2279  140.9341  163.9853 H       1  UNL1        0.1453
     18 H         136.4008  141.7821  162.5161 H       1  UNL1        0.1453
     19 N         139.0601  137.9729  163.4476 N.pl3   1  UNL1       -0.2964
     20 H         138.3831  137.2633  163.5334 H       1  UNL1        0.1537
     21 C         139.8938  138.0678  162.2043 C.ar    1  UNL1        0.0495
     22 C         141.3654  137.7834  162.2645 C.ar    1  UNL1        0.0162
     23 C         142.1990  137.8783  161.0211 C.ar    1  UNL1        0.0205
     24 C         141.5611  138.2575  159.7176 C.ar    1  UNL1        0.0846
     25 C         140.0896  138.5418  159.6574 C.ar    1  UNL1        0.0205
     26 C         139.2559  138.4470  160.9007 C.ar    1  UNL1        0.0162
     27 N         142.3948  138.3523  158.4741 N.ar    1  UNL1       -0.2089
     28 C         142.2308  137.5201  157.2370 C.ar    1  UNL1        0.1245
     29 C         143.2735  137.9495  156.2480 C.ar    1  UNL1        0.1445
     30 N         144.0818  139.0472  156.8737 N.ar    1  UNL1       -0.1268
     31 N         143.5388  139.2962  158.2496 N.ar    1  UNL1       -0.0595
@<TRIPOS>BOND
     1    12    13    3
     2     6    13    1
     3     6     7    1
     4     7     8    1
     5     8     9    1
     6     9    10    1
     7    10    11    1
     8    11     1    1
     9     1     2   ar
    10     2     3   ar
    11     3    14    1
    12    14    15   am
    13    14    16    2
    14     3     4   ar
    15     4    19    1
    16    19    21    1
    17    21    22   ar
    18    22    23   ar
    19    23    24   ar
    20    24    27    1
    21    27    28   ar
    22    28    29   ar
    23    29    30   ar
    24    30    31   ar
    25    24    25   ar
    26    25    26   ar
    27     4     5   ar
    28    11     6    1
    29     5     1   ar
    30    26    21   ar
    31    31    27   ar
    32    15    17    1
    33    15    18    1
    34    19    20    1
