@<TRIPOS>MOLECULE
*****
 28 31 0 0 0
SMALL
GASTEIGER

@<TRIPOS>ATOM
      1 C         140.7396  140.0815  165.9725 C.ar    1  UNL1        0.0651
      2 C         139.2878  139.7256  166.0953 C.ar    1  UNL1        0.0177
      3 C         138.4859  139.4116  164.8671 C.ar    1  UNL1        0.0060
      4 C         139.1361  139.4536  163.5160 C.ar    1  UNL1        0.0537
      5 C         140.5880  139.8096  163.3931 C.ar    1  UNL1        0.0060
      6 C         141.3898  140.1236  164.6214 C.ar    1  UNL1        0.0177
      7 C         143.2807  138.3685  167.0942 C.3     1  UNL1        0.0722
      8 C         142.7094  139.6081  167.7163 C.ar    1  UNL1        0.1246
      9 N         143.2058  140.2779  168.9633 N.ar    1  UNL1       -0.2306
     10 C         142.3447  141.4793  169.2184 C.ar    1  UNL1        0.0986
     11 C         142.3643  142.5165  170.3018 C.ar    1  UNL1        0.0206
     12 C         141.3552  143.6263  170.2959 C.ar    1  UNL1        0.0016
     13 C         140.3266  143.6990  169.2066 C.ar    1  UNL1        0.0016
     14 C         140.3070  142.6618  168.1232 C.ar    1  UNL1        0.0191
     15 C         141.3160  141.5520  168.1291 C.ar    1  UNL1        0.0826
     16 N         141.5414  140.3955  167.2008 N.ar    1  UNL1       -0.2936
     17 C         138.3343  139.1397  162.2878 C.2     1  UNL1        0.2491
     18 O         138.0097  137.7153  161.9479 O.2     1  UNL1       -0.2699
     19 N         137.8571  140.2502  161.3994 N.am    1  UNL1       -0.2745
     20 C         137.0553  139.9361  160.1712 C.3     1  UNL1        0.1151
     21 C         138.1818  141.6746  161.7393 C.3     1  UNL1        0.0930
     22 C         137.5586  142.4827  162.8387 C.3     1  UNL1        0.0386
     23 C         138.1783  143.8485  162.8184 C.3     1  UNL1        0.0738
     24 N         139.1844  143.8847  161.7065 N.3     1  UNL1       -0.2725
     25 C         139.1866  142.5410  161.0396 C.3     1  UNL1        0.0921
     26 C         140.0385  145.0582  161.3280 C.3     1  UNL1        0.0576
     27 C         141.3068  144.8450  160.5561 C.3     1  UNL1        0.0173
     28 C         139.6242  146.4452  161.7213 C.3     1  UNL1        0.0173
@<TRIPOS>BOND
     1     7     8    1
     2     8     9   ar
     3     9    10   ar
     4    10    11   ar
     5    11    12   ar
     6    12    13   ar
     7    13    14   ar
     8    14    15   ar
     9    15    16   ar
    10    16     1    1
    11     1     2   ar
    12     2     3   ar
    13     3     4   ar
    14     4    17    1
    15    17    18    2
    16    17    19   am
    17    19    20    1
    18    21    19    1
    19    21    22    1
    20    22    23    1
    21    23    24    1
    22    24    26    1
    23    26    27    1
    24    26    28    1
    25    24    25    1
    26     4     5   ar
    27     5     6   ar
    28    16     8   ar
    29     6     1   ar
    30    15    10   ar
    31    25    21    1
@<TRIPOS>MOLECULE
*****
 28 31 0 0 0
SMALL
GASTEIGER

@<TRIPOS>ATOM
      1 C         139.3757  139.3219  165.3841 C.ar    1  UNL1        0.0651
      2 C         139.0913  140.3834  164.3632 C.ar    1  UNL1        0.0177
      3 C         139.2965  140.0961  162.9053 C.ar    1  UNL1        0.0060
      4 C         139.7861  138.7473  162.4683 C.ar    1  UNL1        0.0537
      5 C         140.0705  137.6858  163.4892 C.ar    1  UNL1        0.0060
      6 C         139.8653  137.9730  164.9471 C.ar    1  UNL1        0.0177
      7 C         137.1617  137.9128  167.3237 C.3     1  UNL1        0.0722
      8 C         138.1528  138.9615  167.7335 C.ar    1  UNL1        0.1246
      9 N         138.3003  139.5466  169.1067 N.ar    1  UNL1       -0.2306
     10 C         139.4091  140.5559  169.0639 C.ar    1  UNL1        0.0986
     11 C         139.9985  141.4448  170.1187 C.ar    1  UNL1        0.0206
     12 C         141.1257  142.3723  169.7736 C.ar    1  UNL1        0.0016
     13 C         141.6635  142.4110  168.3739 C.ar    1  UNL1        0.0016
     14 C         141.0741  141.5221  167.3192 C.ar    1  UNL1        0.0191
     15 C         139.9469  140.5946  167.6642 C.ar    1  UNL1        0.0826
     16 N         139.1705  139.6092  166.8419 N.ar    1  UNL1       -0.2936
     17 C         139.9913  138.4601  161.0104 C.2     1  UNL1        0.2491
     18 O         138.8452  137.9750  160.1731 O.2     1  UNL1       -0.2699
     19 N         141.3426  138.6579  160.3900 N.am    1  UNL1       -0.2745
     20 C         141.5477  138.3706  158.9321 C.3     1  UNL1        0.1151
     21 C         142.4886  139.1429  161.2274 C.3     1  UNL1        0.0930
     22 C         143.4034  138.2858  162.0512 C.3     1  UNL1        0.0386
     23 C         144.4012  139.1834  162.7209 C.3     1  UNL1        0.0738
     24 N         144.1032  140.5952  162.3112 N.3     1  UNL1       -0.2725
     25 C         142.9211  140.5702  161.3881 C.3     1  UNL1        0.0921
     26 C         144.8552  141.8174  162.7478 C.3     1  UNL1        0.0576
     27 C         144.6514  143.1193  162.0313 C.3     1  UNL1        0.0173
     28 C         145.8111  141.7378  163.9010 C.3     1  UNL1        0.0173
@<TRIPOS>BOND
     1     7     8    1
     2     8     9   ar
     3     9    10   ar
     4    10    11   ar
     5    11    12   ar
     6    12    13   ar
     7    13    14   ar
     8    14    15   ar
     9    15    16   ar
    10    16     1    1
    11     1     2   ar
    12     2     3   ar
    13     3     4   ar
    14     4    17    1
    15    17    18    2
    16    17    19   am
    17    19    20    1
    18    21    19    1
    19    21    22    1
    20    22    23    1
    21    23    24    1
    22    24    26    1
    23    26    27    1
    24    26    28    1
    25    24    25    1
    26     4     5   ar
    27     5     6   ar
    28    16     8   ar
    29     6     1   ar
    30    15    10   ar
    31    25    21    1
@<TRIPOS>MOLECULE
*****
 28 31 0 0 0
SMALL
GASTEIGER

@<TRIPOS>ATOM
      1 C         140.7599  139.4738  165.8643 C.ar    1  UNL1        0.0651
      2 C         142.0090  138.6710  165.6520 C.ar    1  UNL1        0.0177
      3 C         142.5042  138.4078  164.2607 C.ar    1  UNL1        0.0060
      4 C         141.7502  138.9476  163.0817 C.ar    1  UNL1        0.0537
      5 C         140.5010  139.7504  163.2939 C.ar    1  UNL1        0.0060
      6 C         140.0059  140.0135  164.6852 C.ar    1  UNL1        0.0177
      7 C         137.7937  138.7468  167.0142 C.3     1  UNL1        0.0722
      8 C         138.9013  139.4027  167.7841 C.ar    1  UNL1        0.1246
      9 N         138.8401  139.8397  169.2177 N.ar    1  UNL1       -0.2306
     10 C         140.1656  140.4440  169.5752 C.ar    1  UNL1        0.0986
     11 C         140.6846  141.0438  170.8483 C.ar    1  UNL1        0.0206
     12 C         142.0841  141.5801  170.9086 C.ar    1  UNL1        0.0016
     13 C         142.9647  141.5166  169.6959 C.ar    1  UNL1        0.0016
     14 C         142.4457  140.9167  168.4229 C.ar    1  UNL1        0.0191
     15 C         141.0462  140.3804  168.3625 C.ar    1  UNL1        0.0826
     16 N         140.2648  139.7369  167.2555 N.ar    1  UNL1       -0.2936
     17 C         142.2454  138.6844  161.6904 C.2     1  UNL1        0.2491
     18 O         141.8618  137.4175  160.9850 O.2     1  UNL1       -0.2699
     19 N         143.1240  139.6883  161.0047 N.am    1  UNL1       -0.2745
     20 C         143.6191  139.4250  159.6134 C.3     1  UNL1        0.1151
     21 C         143.5075  140.9552  161.7102 C.3     1  UNL1        0.0930
     22 C         144.8380  141.2462  162.3388 C.3     1  UNL1        0.0386
     23 C         144.7806  142.6244  162.9280 C.3     1  UNL1        0.0738
     24 N         143.4148  143.1852  162.6636 N.3     1  UNL1       -0.2725
     25 C         142.6279  142.1535  161.9109 C.3     1  UNL1        0.0921
     26 C         142.9223  144.5398  163.0790 C.3     1  UNL1        0.0576
     27 C         143.7440  145.3846  164.0068 C.3     1  UNL1        0.0173
     28 C         141.6079  145.0495  162.5664 C.3     1  UNL1        0.0173
@<TRIPOS>BOND
     1     7     8    1
     2     8     9   ar
     3     9    10   ar
     4    10    11   ar
     5    11    12   ar
     6    12    13   ar
     7    13    14   ar
     8    14    15   ar
     9    15    16   ar
    10    16     1    1
    11     1     2   ar
    12     2     3   ar
    13     3     4   ar
    14     4    17    1
    15    17    18    2
    16    17    19   am
    17    19    20    1
    18    21    19    1
    19    21    22    1
    20    22    23    1
    21    23    24    1
    22    24    26    1
    23    26    27    1
    24    26    28    1
    25    24    25    1
    26     4     5   ar
    27     5     6   ar
    28    16     8   ar
    29     6     1   ar
    30    15    10   ar
    31    25    21    1
@<TRIPOS>MOLECULE
*****
 28 31 0 0 0
SMALL
GASTEIGER

@<TRIPOS>ATOM
      1 C         139.4056  140.5540  165.2259 C.ar    1  UNL1        0.0651
      2 C         140.1665  139.7791  164.1913 C.ar    1  UNL1        0.0177
      3 C         139.8456  139.9544  162.7366 C.ar    1  UNL1        0.0060
      4 C         138.7636  140.9045  162.3164 C.ar    1  UNL1        0.0537
      5 C         138.0026  141.6794  163.3510 C.ar    1  UNL1        0.0060
      6 C         138.3235  141.5042  164.8058 C.ar    1  UNL1        0.0177
      7 C         137.6842  138.7989  167.3722 C.3     1  UNL1        0.0722
      8 C         138.9353  139.5720  167.6672 C.ar    1  UNL1        0.1246
      9 N         139.6149  139.6742  169.0005 N.ar    1  UNL1       -0.2306
     10 C         140.8261  140.5440  168.8380 C.ar    1  UNL1        0.0986
     11 C         141.8751  140.9957  169.8104 C.ar    1  UNL1        0.0206
     12 C         142.9931  141.8829  169.3490 C.ar    1  UNL1        0.0016
     13 C         143.0621  142.3184  167.9152 C.ar    1  UNL1        0.0016
     14 C         142.0131  141.8666  166.9429 C.ar    1  UNL1        0.0191
     15 C         140.8951  140.9794  167.4043 C.ar    1  UNL1        0.0826
     16 N         139.7266  140.3787  166.6807 N.ar    1  UNL1       -0.2936
     17 C         138.4426  141.0798  160.8617 C.2     1  UNL1        0.2491
     18 O         137.4829  140.1447  160.1875 O.2     1  UNL1       -0.2699
     19 N         139.0814  142.1901  160.0812 N.am    1  UNL1       -0.2745
     20 C         138.7604  142.3653  158.6264 C.3     1  UNL1        0.1151
     21 C         140.0411  143.1251  160.7554 C.3     1  UNL1        0.0930
     22 C         139.7713  144.5557  161.1170 C.3     1  UNL1        0.0386
     23 C         141.0025  145.1085  161.7715 C.3     1  UNL1        0.0738
     24 N         142.0333  144.0196  161.8144 N.3     1  UNL1       -0.2725
     25 C         141.4391  142.7938  161.1864 C.3     1  UNL1        0.0921
     26 C         143.4156  144.1361  162.3851 C.3     1  UNL1        0.0576
     27 C         144.5180  143.2622  161.8648 C.3     1  UNL1        0.0173
     28 C         143.6955  145.1266  163.4762 C.3     1  UNL1        0.0173
@<TRIPOS>BOND
     1     7     8    1
     2     8     9   ar
     3     9    10   ar
     4    10    11   ar
     5    11    12   ar
     6    12    13   ar
     7    13    14   ar
     8    14    15   ar
     9    15    16   ar
    10    16     1    1
    11     1     2   ar
    12     2     3   ar
    13     3     4   ar
    14     4    17    1
    15    17    18    2
    16    17    19   am
    17    19    20    1
    18    21    19    1
    19    21    22    1
    20    22    23    1
    21    23    24    1
    22    24    26    1
    23    26    27    1
    24    26    28    1
    25    24    25    1
    26     4     5   ar
    27     5     6   ar
    28    16     8   ar
    29     6     1   ar
    30    15    10   ar
    31    25    21    1
@<TRIPOS>MOLECULE
*****
 28 31 0 0 0
SMALL
GASTEIGER

@<TRIPOS>ATOM
      1 C         139.7450  142.2612  165.4498 C.ar    1  UNL1        0.0651
      2 C         141.0618  142.8287  165.0097 C.ar    1  UNL1        0.0177
      3 C         141.1333  143.6999  163.7907 C.ar    1  UNL1        0.0060
      4 C         139.8879  144.0035  163.0117 C.ar    1  UNL1        0.0537
      5 C         138.5710  143.4360  163.4518 C.ar    1  UNL1        0.0060
      6 C         138.4995  142.5648  164.6708 C.ar    1  UNL1        0.0177
      7 C         138.6859  139.1758  165.5431 C.3     1  UNL1        0.0722
      8 C         139.1867  139.9719  166.7117 C.ar    1  UNL1        0.1246
      9 N         139.2885  139.4895  168.1284 N.ar    1  UNL1       -0.2306
     10 C         139.8383  140.6096  168.9610 C.ar    1  UNL1        0.0986
     11 C         140.1529  140.7117  170.4241 C.ar    1  UNL1        0.0206
     12 C         140.7055  141.9883  170.9850 C.ar    1  UNL1        0.0016
     13 C         140.9434  143.1629  170.0830 C.ar    1  UNL1        0.0016
     14 C         140.6287  143.0609  168.6199 C.ar    1  UNL1        0.0191
     15 C         140.0761  141.7842  168.0590 C.ar    1  UNL1        0.0826
     16 N         139.6734  141.3900  166.6688 N.ar    1  UNL1       -0.2936
     17 C         139.9594  144.8746  161.7927 C.2     1  UNL1        0.2491
     18 O         139.6536  146.3393  161.8987 O.2     1  UNL1       -0.2699
     19 N         140.3367  144.2811  160.4678 N.am    1  UNL1       -0.2745
     20 C         140.4082  145.1524  159.2488 C.3     1  UNL1        0.1151
     21 C         140.6425  142.8165  160.3619 C.3     1  UNL1        0.0930
     22 C         141.9915  142.1829  160.5316 C.3     1  UNL1        0.0386
     23 C         141.8357  140.7031  160.3423 C.3     1  UNL1        0.0738
     24 N         140.3904  140.4220  160.0557 N.3     1  UNL1       -0.2725
     25 C         139.6530  141.7282  160.0678 C.3     1  UNL1        0.0921
     26 C         139.7883  139.0719  159.8016 C.3     1  UNL1        0.0576
     27 C         139.2470  138.2649  160.9442 C.3     1  UNL1        0.0173
     28 C         139.7275  138.5287  158.4047 C.3     1  UNL1        0.0173
@<TRIPOS>BOND
     1     7     8    1
     2     8     9   ar
     3     9    10   ar
     4    10    11   ar
     5    11    12   ar
     6    12    13   ar
     7    13    14   ar
     8    14    15   ar
     9    15    16   ar
    10    16     1    1
    11     1     2   ar
    12     2     3   ar
    13     3     4   ar
    14     4    17    1
    15    17    18    2
    16    17    19   am
    17    19    20    1
    18    21    19    1
    19    21    22    1
    20    22    23    1
    21    23    24    1
    22    24    26    1
    23    26    27    1
    24    26    28    1
    25    24    25    1
    26     4     5   ar
    27     5     6   ar
    28    16     8   ar
    29     6     1   ar
    30    15    10   ar
    31    25    21    1
@<TRIPOS>MOLECULE
*****
 28 31 0 0 0
SMALL
GASTEIGER

@<TRIPOS>ATOM
      1 C         142.3705  142.6700  164.8187 C.ar    1  UNL1        0.0651
      2 C         140.9391  143.0602  165.0392 C.ar    1  UNL1        0.0177
      3 C         140.2723  142.7577  166.3484 C.ar    1  UNL1        0.0060
      4 C         141.0370  142.0650  167.4371 C.ar    1  UNL1        0.0537
      5 C         142.4685  141.6749  167.2167 C.ar    1  UNL1        0.0060
      6 C         143.1353  141.9773  165.9076 C.ar    1  UNL1        0.0177
      7 C         143.7673  145.4994  163.9861 C.3     1  UNL1        0.0722
      8 C         143.6793  144.2730  163.1268 C.ar    1  UNL1        0.1246
      9 N         144.2179  144.1318  161.7340 N.ar    1  UNL1       -0.2306
     10 C         143.9088  142.7440  161.2559 C.ar    1  UNL1        0.0986
     11 C         144.1974  142.0402  159.9632 C.ar    1  UNL1        0.0206
     12 C         143.7564  140.6200  159.7678 C.ar    1  UNL1        0.0016
     13 C         143.0267  139.9035  160.8651 C.ar    1  UNL1        0.0016
     14 C         142.7380  140.6073  162.1579 C.ar    1  UNL1        0.0191
     15 C         143.1791  142.0275  162.3533 C.ar    1  UNL1        0.0826
     16 N         143.0373  142.9725  163.5096 N.ar    1  UNL1       -0.2936
     17 C         140.3702  141.7626  168.7463 C.2     1  UNL1        0.2491
     18 O         140.6206  142.6411  169.9360 O.2     1  UNL1       -0.2699
     19 N         139.4531  140.5816  168.8657 N.am    1  UNL1       -0.2745
     20 C         138.7864  140.2792  170.1749 C.3     1  UNL1        0.1151
     21 C         139.2028  139.7031  167.6759 C.3     1  UNL1        0.0930
     22 C         137.8960  139.0630  167.3120 C.3     1  UNL1        0.0386
     23 C         138.1008  138.2748  166.0524 C.3     1  UNL1        0.0738
     24 N         139.5342  138.4278  165.6377 N.3     1  UNL1       -0.2725
     25 C         140.2153  139.3106  166.6412 C.3     1  UNL1        0.0921
     26 C         140.1742  137.8070  164.4315 C.3     1  UNL1        0.0576
     27 C         141.6034  137.3555  164.4894 C.3     1  UNL1        0.0173
     28 C         139.3850  137.6378  163.1672 C.3     1  UNL1        0.0173
@<TRIPOS>BOND
     1     7     8    1
     2     8     9   ar
     3     9    10   ar
     4    10    11   ar
     5    11    12   ar
     6    12    13   ar
     7    13    14   ar
     8    14    15   ar
     9    15    16   ar
    10    16     1    1
    11     1     2   ar
    12     2     3   ar
    13     3     4   ar
    14     4    17    1
    15    17    18    2
    16    17    19   am
    17    19    20    1
    18    21    19    1
    19    21    22    1
    20    22    23    1
    21    23    24    1
    22    24    26    1
    23    26    27    1
    24    26    28    1
    25    24    25    1
    26     4     5   ar
    27     5     6   ar
    28    16     8   ar
    29     6     1   ar
    30    15    10   ar
    31    25    21    1
@<TRIPOS>MOLECULE
*****
 28 31 0 0 0
SMALL
GASTEIGER

@<TRIPOS>ATOM
      1 C         139.1079  138.9992  162.6890 C.ar    1  UNL1        0.0651
      2 C         138.5356  140.2339  163.3198 C.ar    1  UNL1        0.0177
      3 C         138.3089  140.2828  164.8018 C.ar    1  UNL1        0.0060
      4 C         138.6546  139.0971  165.6530 C.ar    1  UNL1        0.0537
      5 C         139.2269  137.8624  165.0222 C.ar    1  UNL1        0.0060
      6 C         139.4536  137.8134  163.5402 C.ar    1  UNL1        0.0177
      7 C         136.9523  139.8458  160.3898 C.3     1  UNL1        0.0722
      8 C         138.3438  139.3394  160.1502 C.ar    1  UNL1        0.1246
      9 N         138.9888  139.1332  158.8118 N.ar    1  UNL1       -0.2306
     10 C         140.3782  138.6166  159.0414 C.ar    1  UNL1        0.0986
     11 C         141.4763  138.2346  158.0937 C.ar    1  UNL1        0.0206
     12 C         142.7882  137.7395  158.6265 C.ar    1  UNL1        0.0016
     13 C         143.0019  137.6264  160.1068 C.ar    1  UNL1        0.0016
     14 C         141.9038  138.0085  161.0545 C.ar    1  UNL1        0.0191
     15 C         140.5919  138.5036  160.5218 C.ar    1  UNL1        0.0826
     16 N         139.3346  138.9503  161.2071 N.ar    1  UNL1       -0.2936
     17 C         138.4279  139.1461  167.1350 C.2     1  UNL1        0.2491
     18 O         137.3445  138.3150  167.7557 O.2     1  UNL1       -0.2699
     19 N         139.2846  140.0261  167.9961 N.am    1  UNL1       -0.2745
     20 C         139.0579  140.0750  169.4781 C.3     1  UNL1        0.1151
     21 C         140.3681  140.8572  167.3752 C.3     1  UNL1        0.0930
     22 C         140.4781  142.3518  167.4378 C.3     1  UNL1        0.0386
     23 C         141.7096  142.7579  166.6841 C.3     1  UNL1        0.0738
     24 N         142.3608  141.5143  166.1556 N.3     1  UNL1       -0.2725
     25 C         141.5317  140.3395  166.5827 C.3     1  UNL1        0.0921
     26 C         143.6201  141.4557  165.3426 C.3     1  UNL1        0.0576
     27 C         144.4088  142.7063  165.0902 C.3     1  UNL1        0.0173
     28 C         144.0907  140.1464  164.7821 C.3     1  UNL1        0.0173
@<TRIPOS>BOND
     1     7     8    1
     2     8     9   ar
     3     9    10   ar
     4    10    11   ar
     5    11    12   ar
     6    12    13   ar
     7    13    14   ar
     8    14    15   ar
     9    15    16   ar
    10    16     1    1
    11     1     2   ar
    12     2     3   ar
    13     3     4   ar
    14     4    17    1
    15    17    18    2
    16    17    19   am
    17    19    20    1
    18    21    19    1
    19    21    22    1
    20    22    23    1
    21    23    24    1
    22    24    26    1
    23    26    27    1
    24    26    28    1
    25    24    25    1
    26     4     5   ar
    27     5     6   ar
    28    16     8   ar
    29     6     1   ar
    30    15    10   ar
    31    25    21    1
@<TRIPOS>MOLECULE
*****
 28 31 0 0 0
SMALL
GASTEIGER

@<TRIPOS>ATOM
      1 C         141.2800  141.6477  165.6520 C.ar    1  UNL1        0.0651
      2 C         140.1660  141.0390  164.8530 C.ar    1  UNL1        0.0177
      3 C         139.7149  141.6891  163.5787 C.ar    1  UNL1        0.0060
      4 C         140.3777  142.9480  163.1034 C.ar    1  UNL1        0.0537
      5 C         141.4917  143.5567  163.9025 C.ar    1  UNL1        0.0060
      6 C         141.9428  142.9066  165.1768 C.ar    1  UNL1        0.0177
      7 C         143.2639  139.0677  165.8913 C.3     1  UNL1        0.0722
      8 C         142.6430  139.8117  167.0363 C.ar    1  UNL1        0.1246
      9 N         142.8251  139.5004  168.4923 N.ar    1  UNL1       -0.2306
     10 C         142.0256  140.4939  169.2822 C.ar    1  UNL1        0.0986
     11 C         141.8260  140.6755  170.7577 C.ar    1  UNL1        0.0206
     12 C         140.9503  141.7824  171.2653 C.ar    1  UNL1        0.0016
     13 C         140.2742  142.7077  170.2975 C.ar    1  UNL1        0.0016
     14 C         140.4738  142.5261  168.8220 C.ar    1  UNL1        0.0191
     15 C         141.3495  141.4192  168.3143 C.ar    1  UNL1        0.0826
     16 N         141.7311  140.9975  166.9263 N.ar    1  UNL1       -0.2936
     17 C         139.9265  143.5981  161.8292 C.2     1  UNL1        0.2491
     18 O         138.8227  144.6135  161.8552 O.2     1  UNL1       -0.2699
     19 N         140.5791  143.2329  160.5289 N.am    1  UNL1       -0.2745
     20 C         140.1279  143.8831  159.2546 C.3     1  UNL1        0.1151
     21 C         141.6829  142.2175  160.5029 C.3     1  UNL1        0.0930
     22 C         143.1492  142.5057  160.6328 C.3     1  UNL1        0.0386
     23 C         143.8867  141.2021  160.5527 C.3     1  UNL1        0.0738
     24 N         142.8763  140.1081  160.3733 N.3     1  UNL1       -0.2725
     25 C         141.5142  140.7357  160.3425 C.3     1  UNL1        0.0921
     26 C         143.1753  138.6437  160.2468 C.3     1  UNL1        0.0576
     27 C         143.9031  137.9291  161.3466 C.3     1  UNL1        0.0173
     28 C         142.7466  137.8938  159.0205 C.3     1  UNL1        0.0173
@<TRIPOS>BOND
     1     7     8    1
     2     8     9   ar
     3     9    10   ar
     4    10    11   ar
     5    11    12   ar
     6    12    13   ar
     7    13    14   ar
     8    14    15   ar
     9    15    16   ar
    10    16     1    1
    11     1     2   ar
    12     2     3   ar
    13     3     4   ar
    14     4    17    1
    15    17    18    2
    16    17    19   am
    17    19    20    1
    18    21    19    1
    19    21    22    1
    20    22    23    1
    21    23    24    1
    22    24    26    1
    23    26    27    1
    24    26    28    1
    25    24    25    1
    26     4     5   ar
    27     5     6   ar
    28    16     8   ar
    29     6     1   ar
    30    15    10   ar
    31    25    21    1
@<TRIPOS>MOLECULE
*****
 28 31 0 0 0
SMALL
GASTEIGER

@<TRIPOS>ATOM
      1 C         139.8396  140.1535  167.2655 C.ar    1  UNL1        0.0651
      2 C         140.9299  139.9266  166.2607 C.ar    1  UNL1        0.0177
      3 C         140.5879  139.4730  164.8724 C.ar    1  UNL1        0.0060
      4 C         139.1556  139.2463  164.4889 C.ar    1  UNL1        0.0537
      5 C         138.0653  139.4732  165.4937 C.ar    1  UNL1        0.0060
      6 C         138.4072  139.9268  166.8820 C.ar    1  UNL1        0.0177
      7 C         138.0193  139.6975  169.9353 C.3     1  UNL1        0.0722
      8 C         139.3448  140.3975  169.8810 C.ar    1  UNL1        0.1246
      9 N         140.0664  141.0108  171.0442 N.ar    1  UNL1       -0.2306
     10 C         141.3491  141.5994  170.5360 C.ar    1  UNL1        0.0986
     11 C         142.4614  142.3303  171.2276 C.ar    1  UNL1        0.0206
     12 C         143.6450  142.8117  170.4418 C.ar    1  UNL1        0.0016
     13 C         143.7161  142.5622  168.9644 C.ar    1  UNL1        0.0016
     14 C         142.6037  141.8313  168.2728 C.ar    1  UNL1        0.0191
     15 C         141.4202  141.3499  169.0586 C.ar    1  UNL1        0.0826
     16 N         140.1815  140.6071  168.6538 N.ar    1  UNL1       -0.2936
     17 C         138.8137  138.7927  163.1006 C.2     1  UNL1        0.2491
     18 O         138.7702  137.3281  162.7796 O.2     1  UNL1       -0.2699
     19 N         138.5153  139.8037  162.0334 N.am    1  UNL1       -0.2745
     20 C         138.1733  139.3500  160.6451 C.3     1  UNL1        0.1151
     21 C         138.5588  141.2682  162.3546 C.3     1  UNL1        0.0930
     22 C         137.4326  142.0801  162.9225 C.3     1  UNL1        0.0386
     23 C         137.9139  143.4917  163.0831 C.3     1  UNL1        0.0738
     24 N         139.3375  143.5522  162.6144 N.3     1  UNL1       -0.2725
     25 C         139.7361  142.1780  162.1642 C.3     1  UNL1        0.0921
     26 C         140.2094  144.7727  162.5987 C.3     1  UNL1        0.0576
     27 C         141.5617  144.7367  163.2468 C.3     1  UNL1        0.0173
     28 C         139.7291  146.0291  161.9350 C.3     1  UNL1        0.0173
@<TRIPOS>BOND
     1     7     8    1
     2     8     9   ar
     3     9    10   ar
     4    10    11   ar
     5    11    12   ar
     6    12    13   ar
     7    13    14   ar
     8    14    15   ar
     9    15    16   ar
    10    16     1    1
    11     1     2   ar
    12     2     3   ar
    13     3     4   ar
    14     4    17    1
    15    17    18    2
    16    17    19   am
    17    19    20    1
    18    21    19    1
    19    21    22    1
    20    22    23    1
    21    23    24    1
    22    24    26    1
    23    26    27    1
    24    26    28    1
    25    24    25    1
    26     4     5   ar
    27     5     6   ar
    28    16     8   ar
    29     6     1   ar
    30    15    10   ar
    31    25    21    1
