@<TRIPOS>MOLECULE
*****
 29 31 0 0 0
SMALL
GASTEIGER

@<TRIPOS>ATOM
      1 C         139.3448  144.3314  162.3745 C.2     1  UNL1        0.2548
      2 O         138.0631  145.1105  162.3560 O.2     1  UNL1       -0.2694
      3 N         139.8784  143.7959  163.6701 N.am    1  UNL1       -0.2757
      4 C         139.1303  144.0394  164.9472 C.3     1  UNL1        0.0941
      5 C         139.6639  143.5039  166.2427 C.3     1  UNL1        0.0259
      6 C         140.9456  142.7249  166.2611 C.3     1  UNL1        0.0257
      7 C         141.6937  142.4813  164.9841 C.3     1  UNL1        0.0259
      8 C         141.1601  143.0168  163.6885 C.3     1  UNL1        0.0941
      9 C         141.6073  144.3633  159.2209 C.ar    1  UNL1        0.1747
     10 S         141.1202  144.9968  160.4903 S.2     1  UNL1       -0.0459
     11 C         140.0929  144.0879  161.0974 C.ar    1  UNL1        0.0824
     12 C         139.9451  142.8927  160.2031 C.ar    1  UNL1       -0.0017
     13 C         139.0232  141.7312  160.4289 C.3     1  UNL1        0.0323
     14 C         140.8810  143.0629  159.0433 C.ar    1  UNL1        0.0716
     15 BR        141.0593  142.1016  157.9058 Br      1  UNL1       -0.0456
     16 O         142.6394  144.9307  158.2920 O.3     1  UNL1       -0.4692
     17 C         142.2343  145.9047  157.2256 C.3     1  UNL1        0.2061
     18 C         139.7365  146.5747  156.9768 C.3     1  UNL1        0.0040
     19 C         140.9114  145.7535  156.5349 C.3     1  UNL1        0.0474
     20 C         141.4792  142.1893  167.5568 C.ar    1  UNL1       -0.0227
     21 C         142.9118  142.4261  167.9329 C.ar    1  UNL1       -0.0043
     22 C         143.4454  141.8905  169.2286 C.ar    1  UNL1       -0.0006
     23 C         142.5463  141.1183  170.1480 C.ar    1  UNL1       -0.0030
     24 C         141.1137  140.8816  169.7717 C.ar    1  UNL1       -0.0069
     25 C         140.5801  141.4171  168.4762 C.ar    1  UNL1       -0.0072
     26 C         140.2146  140.1093  170.6911 C.3     1  UNL1        0.0922
     27 N         138.7499  139.9962  170.3874 N.3     1  UNL1       -0.3175
     28 H         138.3160  140.9166  170.4577 H       1  UNL1        0.1192
     29 H         138.3122  139.3620  171.0556 H       1  UNL1        0.1192
@<TRIPOS>BOND
     1    18    19    1
     2    19    17    1
     3    17    16    1
     4    16     9    1
     5     9    10   ar
     6    10    11   ar
     7    11     1    1
     8     1     2    2
     9     1     3   am
    10     3     4    1
    11     4     5    1
    12     5     6    1
    13     6    20    1
    14    20    21   ar
    15    21    22   ar
    16    22    23   ar
    17    23    24   ar
    18    24    26    1
    19    26    27    1
    20    24    25   ar
    21     6     7    1
    22     7     8    1
    23    11    12   ar
    24    12    13    1
    25    12    14   ar
    26    14    15    1
    27    14     9   ar
    28     8     3    1
    29    25    20   ar
    30    27    28    1
    31    27    29    1
@<TRIPOS>MOLECULE
*****
 29 31 0 0 0
SMALL
GASTEIGER

@<TRIPOS>ATOM
      1 C         138.6568  140.0506  162.4461 C.2     1  UNL1        0.2548
      2 O         137.6435  138.9941  162.1191 O.2     1  UNL1       -0.2694
      3 N         139.0926  140.2579  163.8664 N.am    1  UNL1       -0.2757
      4 C         138.5151  139.4086  164.9596 C.3     1  UNL1        0.0941
      5 C         138.9510  139.6158  166.3798 C.3     1  UNL1        0.0259
      6 C         139.9643  140.6724  166.7069 C.3     1  UNL1        0.0257
      7 C         140.5417  141.5217  165.6136 C.3     1  UNL1        0.0259
      8 C         140.1059  141.3144  164.1934 C.3     1  UNL1        0.0941
      9 C         139.5730  142.7073  159.7689 C.ar    1  UNL1        0.1747
     10 S         138.6839  142.2088  160.8693 S.2     1  UNL1       -0.0459
     11 C         139.2343  140.8999  161.3529 C.ar    1  UNL1        0.0824
     12 C         140.4636  140.5895  160.5513 C.ar    1  UNL1       -0.0017
     13 C         141.3312  139.3752  160.7022 C.3     1  UNL1        0.0323
     14 C         140.6729  141.7065  159.5723 C.ar    1  UNL1        0.0716
     15 BR        141.7866  141.8053  158.5723 Br      1  UNL1       -0.0456
     16 O         139.3937  143.9827  158.9999 O.3     1  UNL1       -0.4692
     17 C         140.2120  145.1904  159.3491 C.3     1  UNL1        0.2061
     18 C         139.7628  146.1659  161.7148 C.3     1  UNL1        0.0040
     19 C         140.6498  145.4157  160.7660 C.3     1  UNL1        0.0474
     20 C         140.4001  140.8796  168.1272 C.ar    1  UNL1       -0.0227
     21 C         139.6176  140.2642  169.2492 C.ar    1  UNL1       -0.0043
     22 C         140.0534  140.4714  170.6695 C.ar    1  UNL1       -0.0006
     23 C         141.2717  141.2941  170.9677 C.ar    1  UNL1       -0.0030
     24 C         142.0542  141.9095  169.8456 C.ar    1  UNL1       -0.0069
     25 C         141.6184  141.7023  168.4254 C.ar    1  UNL1       -0.0072
     26 C         143.2725  142.7322  170.1438 C.3     1  UNL1        0.0922
     27 N         143.2039  143.8325  171.1611 N.3     1  UNL1       -0.3175
     28 H         142.5799  144.5667  170.8262 H       1  UNL1        0.1192
     29 H         144.1364  144.2192  171.3070 H       1  UNL1        0.1192
@<TRIPOS>BOND
     1    18    19    1
     2    19    17    1
     3    17    16    1
     4    16     9    1
     5     9    10   ar
     6    10    11   ar
     7    11     1    1
     8     1     2    2
     9     1     3   am
    10     3     4    1
    11     4     5    1
    12     5     6    1
    13     6    20    1
    14    20    21   ar
    15    21    22   ar
    16    22    23   ar
    17    23    24   ar
    18    24    26    1
    19    26    27    1
    20    24    25   ar
    21     6     7    1
    22     7     8    1
    23    11    12   ar
    24    12    13    1
    25    12    14   ar
    26    14    15    1
    27    14     9   ar
    28     8     3    1
    29    25    20   ar
    30    27    28    1
    31    27    29    1
@<TRIPOS>MOLECULE
*****
 29 31 0 0 0
SMALL
GASTEIGER

@<TRIPOS>ATOM
      1 C         139.3377  144.0066  164.6300 C.2     1  UNL1        0.2548
      2 O         138.7947  145.1307  165.4616 O.2     1  UNL1       -0.2694
      3 N         139.7294  144.2509  163.2027 N.am    1  UNL1       -0.2757
      4 C         139.5781  145.6193  162.6072 C.3     1  UNL1        0.0941
      5 C         139.9699  145.8635  161.1800 C.3     1  UNL1        0.0259
      6 C         140.5129  144.7394  160.3484 C.3     1  UNL1        0.0257
      7 C         140.6642  143.3711  160.9440 C.3     1  UNL1        0.0259
      8 C         140.2724  143.1269  162.3711 C.3     1  UNL1        0.0941
      9 C         140.3234  140.7657  166.5246 C.ar    1  UNL1        0.1747
     10 S         140.5513  142.2111  166.1945 S.2     1  UNL1       -0.0459
     11 C         139.4890  142.6383  165.2255 C.ar    1  UNL1        0.0824
     12 C         138.6045  141.4570  164.9567 C.ar    1  UNL1       -0.0017
     13 C         137.4135  141.4366  164.0451 C.3     1  UNL1        0.0323
     14 C         139.1202  140.2996  165.7595 C.ar    1  UNL1        0.0716
     15 BR        138.5354  138.9187  165.7917 Br      1  UNL1       -0.0456
     16 O         141.1530  139.9326  167.4561 O.3     1  UNL1       -0.4692
     17 C         140.8747  139.9528  168.9299 C.3     1  UNL1        0.2061
     18 C         139.5714  141.8461  170.1410 C.3     1  UNL1        0.0040
     19 C         139.5834  140.5193  169.4416 C.3     1  UNL1        0.0474
     20 C         140.9046  144.9837  158.9212 C.ar    1  UNL1       -0.0227
     21 C         142.1224  144.3172  158.3531 C.ar    1  UNL1       -0.0043
     22 C         142.5141  144.5615  156.9258 C.ar    1  UNL1       -0.0006
     23 C         141.6880  145.4723  156.0667 C.ar    1  UNL1       -0.0030
     24 C         140.4702  146.1388  156.6349 C.ar    1  UNL1       -0.0069
     25 C         140.0785  145.8945  158.0621 C.ar    1  UNL1       -0.0072
     26 C         139.6441  147.0496  155.7758 C.3     1  UNL1        0.0922
     27 N         138.8374  148.1466  156.4051 N.3     1  UNL1       -0.3175
     28 H         138.1001  147.7394  156.9804 H       1  UNL1        0.1192
     29 H         138.4195  148.7232  155.6748 H       1  UNL1        0.1192
@<TRIPOS>BOND
     1    18    19    1
     2    19    17    1
     3    17    16    1
     4    16     9    1
     5     9    10   ar
     6    10    11   ar
     7    11     1    1
     8     1     2    2
     9     1     3   am
    10     3     4    1
    11     4     5    1
    12     5     6    1
    13     6    20    1
    14    20    21   ar
    15    21    22   ar
    16    22    23   ar
    17    23    24   ar
    18    24    26    1
    19    26    27    1
    20    24    25   ar
    21     6     7    1
    22     7     8    1
    23    11    12   ar
    24    12    13    1
    25    12    14   ar
    26    14    15    1
    27    14     9   ar
    28     8     3    1
    29    25    20   ar
    30    27    28    1
    31    27    29    1
@<TRIPOS>MOLECULE
*****
 29 31 0 0 0
SMALL
GASTEIGER

@<TRIPOS>ATOM
      1 C         143.0578  143.7725  162.1495 C.2     1  UNL1        0.2548
      2 O         144.4736  144.2677  162.1650 O.2     1  UNL1       -0.2694
      3 N         142.4400  143.2279  163.4033 N.am    1  UNL1       -0.2757
      4 C         143.2380  143.1787  164.6725 C.3     1  UNL1        0.0941
      5 C         142.6201  142.6341  165.9261 C.3     1  UNL1        0.0259
      6 C         141.2043  142.1388  165.9106 C.3     1  UNL1        0.0257
      7 C         140.4064  142.1881  164.6415 C.3     1  UNL1        0.0259
      8 C         141.0242  142.7326  163.3878 C.3     1  UNL1        0.0941
      9 C         140.7777  144.5780  159.1136 C.ar    1  UNL1        0.1747
     10 S         141.3794  144.9518  160.4358 S.2     1  UNL1       -0.0459
     11 C         142.2599  143.8217  160.8804 C.ar    1  UNL1        0.0824
     12 C         142.2023  142.7495  159.8329 C.ar    1  UNL1       -0.0017
     13 C         142.9326  141.4398  159.8708 C.3     1  UNL1        0.0323
     14 C         141.2863  143.2169  158.7410 C.ar    1  UNL1        0.0716
     15 BR        140.9396  142.4568  157.4952 Br      1  UNL1       -0.0456
     16 O         139.8332  145.4179  158.3058 O.3     1  UNL1       -0.4692
     17 C         140.3506  146.2402  157.1630 C.3     1  UNL1        0.2061
     18 C         140.1957  146.3553  154.5721 C.3     1  UNL1        0.0040
     19 C         139.5307  146.3915  155.9161 C.3     1  UNL1        0.0474
     20 C         140.5865  141.5943  167.1644 C.ar    1  UNL1       -0.0227
     21 C         139.7033  140.3836  167.1006 C.ar    1  UNL1       -0.0043
     22 C         139.0854  139.8390  168.3544 C.ar    1  UNL1       -0.0006
     23 C         139.3509  140.5052  169.6718 C.ar    1  UNL1       -0.0030
     24 C         140.2342  141.7160  169.7355 C.ar    1  UNL1       -0.0069
     25 C         140.8520  142.2604  168.4818 C.ar    1  UNL1       -0.0072
     26 C         140.4996  142.3821  171.0530 C.3     1  UNL1        0.0922
     27 N         141.7543  142.0682  171.8129 N.3     1  UNL1       -0.3175
     28 H         141.7341  141.0942  172.1151 H       1  UNL1        0.1192
     29 H         141.8185  142.6763  172.6293 H       1  UNL1        0.1192
@<TRIPOS>BOND
     1    18    19    1
     2    19    17    1
     3    17    16    1
     4    16     9    1
     5     9    10   ar
     6    10    11   ar
     7    11     1    1
     8     1     2    2
     9     1     3   am
    10     3     4    1
    11     4     5    1
    12     5     6    1
    13     6    20    1
    14    20    21   ar
    15    21    22   ar
    16    22    23   ar
    17    23    24   ar
    18    24    26    1
    19    26    27    1
    20    24    25   ar
    21     6     7    1
    22     7     8    1
    23    11    12   ar
    24    12    13    1
    25    12    14   ar
    26    14    15    1
    27    14     9   ar
    28     8     3    1
    29    25    20   ar
    30    27    28    1
    31    27    29    1
@<TRIPOS>MOLECULE
*****
 29 31 0 0 0
SMALL
GASTEIGER

@<TRIPOS>ATOM
      1 C         139.0614  142.8796  161.2754 C.2     1  UNL1        0.2548
      2 O         137.5769  142.8283  161.0668 O.2     1  UNL1       -0.2694
      3 N         139.6272  142.7969  162.6622 N.am    1  UNL1       -0.2757
      4 C         138.7085  142.6630  163.8403 C.3     1  UNL1        0.0941
      5 C         139.2743  142.5803  165.2270 C.3     1  UNL1        0.0259
      6 C         140.7588  142.6316  165.4356 C.3     1  UNL1        0.0257
      7 C         141.6775  142.7655  164.2575 C.3     1  UNL1        0.0259
      8 C         141.1117  142.8482  162.8708 C.3     1  UNL1        0.0941
      9 C         141.3488  142.4805  158.1651 C.ar    1  UNL1        0.1747
     10 S         140.4471  141.8964  159.2119 S.2     1  UNL1       -0.0459
     11 C         139.9802  143.0135  160.0973 C.ar    1  UNL1        0.0824
     12 C         140.5933  144.2881  159.5977 C.ar    1  UNL1       -0.0017
     13 C         140.3953  145.6525  160.1886 C.3     1  UNL1        0.0323
     14 C         141.4392  143.9587  158.4036 C.ar    1  UNL1        0.0716
     15 BR        142.2356  144.9359  157.5907 Br      1  UNL1       -0.0456
     16 O         142.0390  141.7200  157.0718 O.3     1  UNL1       -0.4692
     17 C         143.1374  140.7552  157.4073 C.3     1  UNL1        0.2061
     18 C         145.0877  142.3930  157.9208 C.3     1  UNL1        0.0040
     19 C         144.2732  141.1878  158.2865 C.3     1  UNL1        0.0474
     20 C         141.3246  142.5489  166.8224 C.ar    1  UNL1       -0.0227
     21 C         142.7961  142.3360  167.0206 C.ar    1  UNL1       -0.0043
     22 C         143.3619  142.2533  168.4074 C.ar    1  UNL1       -0.0006
     23 C         142.4561  142.3836  169.5959 C.ar    1  UNL1       -0.0030
     24 C         140.9845  142.5965  169.3976 C.ar    1  UNL1       -0.0069
     25 C         140.4188  142.6791  168.0109 C.ar    1  UNL1       -0.0072
     26 C         140.0787  142.7267  170.5862 C.3     1  UNL1        0.0922
     27 N         140.5238  142.2229  171.9271 N.3     1  UNL1       -0.3175
     28 H         140.6181  141.2078  171.8948 H       1  UNL1        0.1192
     29 H         139.8327  142.4779  172.6327 H       1  UNL1        0.1192
@<TRIPOS>BOND
     1    18    19    1
     2    19    17    1
     3    17    16    1
     4    16     9    1
     5     9    10   ar
     6    10    11   ar
     7    11     1    1
     8     1     2    2
     9     1     3   am
    10     3     4    1
    11     4     5    1
    12     5     6    1
    13     6    20    1
    14    20    21   ar
    15    21    22   ar
    16    22    23   ar
    17    23    24   ar
    18    24    26    1
    19    26    27    1
    20    24    25   ar
    21     6     7    1
    22     7     8    1
    23    11    12   ar
    24    12    13    1
    25    12    14   ar
    26    14    15    1
    27    14     9   ar
    28     8     3    1
    29    25    20   ar
    30    27    28    1
    31    27    29    1
@<TRIPOS>MOLECULE
*****
 29 31 0 0 0
SMALL
GASTEIGER

@<TRIPOS>ATOM
      1 C         140.0072  144.7727  161.0324 C.2     1  UNL1        0.2548
      2 O         139.4195  146.1417  160.8580 O.2     1  UNL1       -0.2694
      3 N         140.0026  144.1211  162.3835 N.am    1  UNL1       -0.2757
      4 C         139.4103  144.8385  163.5601 C.3     1  UNL1        0.0941
      5 C         139.4058  144.1869  164.9112 C.3     1  UNL1        0.0259
      6 C         139.9935  142.8179  165.0856 C.3     1  UNL1        0.0257
      7 C         140.5858  142.1005  163.9089 C.3     1  UNL1        0.0259
      8 C         140.5904  142.7521  162.5579 C.3     1  UNL1        0.0941
      9 C         142.1528  143.3280  158.1385 C.ar    1  UNL1        0.1747
     10 S         141.9861  144.2431  159.3154 S.2     1  UNL1       -0.0459
     11 C         140.5995  144.0553  159.8557 C.ar    1  UNL1        0.0824
     12 C         139.9092  143.0243  159.0129 C.ar    1  UNL1       -0.0017
     13 C         138.5054  142.5295  159.1987 C.3     1  UNL1        0.0323
     14 C         140.8692  142.5747  157.9516 C.ar    1  UNL1        0.0716
     15 BR        140.5939  141.5516  156.8898 Br      1  UNL1       -0.0456
     16 O         143.3865  143.1904  157.2965 O.3     1  UNL1       -0.4692
     17 C         144.5857  142.4683  157.8354 C.3     1  UNL1        0.2061
     18 C         144.4816  140.2941  156.4169 C.3     1  UNL1        0.0040
     19 C         145.2718  141.4271  157.0015 C.3     1  UNL1        0.0474
     20 C         139.9889  142.1663  166.4367 C.ar    1  UNL1       -0.0227
     21 C         139.6816  140.7036  166.5629 C.ar    1  UNL1       -0.0043
     22 C         139.6771  140.0519  167.9140 C.ar    1  UNL1       -0.0006
     23 C         139.9797  140.8631  169.1389 C.ar    1  UNL1       -0.0030
     24 C         140.2870  142.3260  169.0126 C.ar    1  UNL1       -0.0069
     25 C         140.2916  142.9775  167.6616 C.ar    1  UNL1       -0.0072
     26 C         140.5897  143.1371  170.2375 C.3     1  UNL1        0.0922
     27 N         140.1787  144.5783  170.3031 N.3     1  UNL1       -0.3175
     28 H         140.7026  145.1131  169.6104 H       1  UNL1        0.1192
     29 H         140.3736  144.9454  171.2346 H       1  UNL1        0.1192
@<TRIPOS>BOND
     1    18    19    1
     2    19    17    1
     3    17    16    1
     4    16     9    1
     5     9    10   ar
     6    10    11   ar
     7    11     1    1
     8     1     2    2
     9     1     3   am
    10     3     4    1
    11     4     5    1
    12     5     6    1
    13     6    20    1
    14    20    21   ar
    15    21    22   ar
    16    22    23   ar
    17    23    24   ar
    18    24    26    1
    19    26    27    1
    20    24    25   ar
    21     6     7    1
    22     7     8    1
    23    11    12   ar
    24    12    13    1
    25    12    14   ar
    26    14    15    1
    27    14     9   ar
    28     8     3    1
    29    25    20   ar
    30    27    28    1
    31    27    29    1
@<TRIPOS>MOLECULE
*****
 29 31 0 0 0
SMALL
GASTEIGER

@<TRIPOS>ATOM
      1 C         144.3373  141.1190  162.3504 C.2     1  UNL1        0.2548
      2 O         145.7426  141.6270  162.4812 O.2     1  UNL1       -0.2694
      3 N         143.4527  141.0402  163.5592 N.am    1  UNL1       -0.2757
      4 C         143.9733  141.4694  164.8989 C.3     1  UNL1        0.0941
      5 C         143.0887  141.3906  166.1076 C.3     1  UNL1        0.0259
      6 C         141.6834  140.8826  165.9768 C.3     1  UNL1        0.0257
      7 C         141.1628  140.4534  164.6371 C.3     1  UNL1        0.0259
      8 C         142.0474  140.5322  163.4284 C.3     1  UNL1        0.0941
      9 C         142.9421  140.7479  158.7475 C.ar    1  UNL1        0.1747
     10 S         143.3919  141.6002  159.8969 S.2     1  UNL1       -0.0459
     11 C         143.8167  140.6898  161.0107 C.ar    1  UNL1        0.0824
     12 C         143.6294  139.2747  160.5497 C.ar    1  UNL1       -0.0017
     13 C         143.9299  138.0404  161.3473 C.3     1  UNL1        0.0323
     14 C         143.0889  139.3106  159.1509 C.ar    1  UNL1        0.0716
     15 BR        142.7539  138.1186  158.3042 Br      1  UNL1       -0.0456
     16 O         142.4346  141.2455  157.4266 O.3     1  UNL1       -0.4692
     17 C         143.3435  141.2663  156.2335 C.3     1  UNL1        0.2061
     18 C         145.8975  141.5930  156.5804 C.3     1  UNL1        0.0040
     19 C         144.5523  142.1545  156.2268 C.3     1  UNL1        0.0474
     20 C         140.7987  140.8039  167.1856 C.ar    1  UNL1       -0.0227
     21 C         139.7188  139.7655  167.2583 C.ar    1  UNL1       -0.0043
     22 C         138.8341  139.6867  168.4672 C.ar    1  UNL1       -0.0006
     23 C         139.0295  140.6464  169.6033 C.ar    1  UNL1       -0.0030
     24 C         140.1096  141.6848  169.5306 C.ar    1  UNL1       -0.0069
     25 C         140.9941  141.7636  168.3218 C.ar    1  UNL1       -0.0072
     26 C         140.3049  142.6445  170.6667 C.3     1  UNL1        0.0922
     27 N         140.6670  142.1307  172.0287 N.3     1  UNL1       -0.3175
     28 H         139.8933  141.5804  172.4012 H       1  UNL1        0.1192
     29 H         140.8548  142.9175  172.6501 H       1  UNL1        0.1192
@<TRIPOS>BOND
     1    18    19    1
     2    19    17    1
     3    17    16    1
     4    16     9    1
     5     9    10   ar
     6    10    11   ar
     7    11     1    1
     8     1     2    2
     9     1     3   am
    10     3     4    1
    11     4     5    1
    12     5     6    1
    13     6    20    1
    14    20    21   ar
    15    21    22   ar
    16    22    23   ar
    17    23    24   ar
    18    24    26    1
    19    26    27    1
    20    24    25   ar
    21     6     7    1
    22     7     8    1
    23    11    12   ar
    24    12    13    1
    25    12    14   ar
    26    14    15    1
    27    14     9   ar
    28     8     3    1
    29    25    20   ar
    30    27    28    1
    31    27    29    1
@<TRIPOS>MOLECULE
*****
 29 31 0 0 0
SMALL
GASTEIGER

@<TRIPOS>ATOM
      1 C         139.6333  143.8579  164.2881 C.2     1  UNL1        0.2548
      2 O         139.0374  144.9630  165.1089 O.2     1  UNL1       -0.2694
      3 N         139.9913  144.0999  162.8517 N.am    1  UNL1       -0.2757
      4 C         139.7535  145.4469  162.2361 C.3     1  UNL1        0.0941
      5 C         140.1115  145.6888  160.7997 C.3     1  UNL1        0.0259
      6 C         140.7074  144.5837  159.9789 C.3     1  UNL1        0.0257
      7 C         140.9452  143.2367  160.5945 C.3     1  UNL1        0.0259
      8 C         140.5872  142.9948  162.0309 C.3     1  UNL1        0.0941
      9 C         139.5152  140.2631  165.7471 C.ar    1  UNL1        0.1747
     10 S         138.8429  141.4361  165.0975 S.2     1  UNL1       -0.0459
     11 C         139.8711  142.5109  164.9037 C.ar    1  UNL1        0.0824
     12 C         141.1789  142.0021  165.4336 C.ar    1  UNL1       -0.0017
     13 C         142.4785  142.7511  165.4409 C.3     1  UNL1        0.0323
     14 C         140.9590  140.6129  165.9549 C.ar    1  UNL1        0.0716
     15 BR        142.0000  139.7288  166.5750 Br      1  UNL1       -0.0456
     16 O         138.8590  138.9677  166.1230 O.3     1  UNL1       -0.4692
     17 C         138.9160  137.7982  165.1854 C.3     1  UNL1        0.2061
     18 C         141.0442  137.1146  163.8613 C.3     1  UNL1        0.0040
     19 C         139.7528  137.8732  163.9427 C.3     1  UNL1        0.0474
     20 C         141.0654  144.8257  158.5424 C.ar    1  UNL1       -0.0227
     21 C         142.1585  144.0266  157.8971 C.ar    1  UNL1       -0.0043
     22 C         142.5165  144.2685  156.4606 C.ar    1  UNL1       -0.0006
     23 C         141.7814  145.3097  155.6696 C.ar    1  UNL1       -0.0030
     24 C         140.6883  146.1088  156.3151 C.ar    1  UNL1       -0.0069
     25 C         140.3303  145.8668  157.7514 C.ar    1  UNL1       -0.0072
     26 C         139.9532  147.1499  155.5240 C.3     1  UNL1        0.0922
     27 N         138.5824  147.5859  155.9495 N.3     1  UNL1       -0.3175
     28 H         137.9320  146.8062  155.8515 H       1  UNL1        0.1192
     29 H         138.2747  148.3612  155.3624 H       1  UNL1        0.1192
@<TRIPOS>BOND
     1    18    19    1
     2    19    17    1
     3    17    16    1
     4    16     9    1
     5     9    10   ar
     6    10    11   ar
     7    11     1    1
     8     1     2    2
     9     1     3   am
    10     3     4    1
    11     4     5    1
    12     5     6    1
    13     6    20    1
    14    20    21   ar
    15    21    22   ar
    16    22    23   ar
    17    23    24   ar
    18    24    26    1
    19    26    27    1
    20    24    25   ar
    21     6     7    1
    22     7     8    1
    23    11    12   ar
    24    12    13    1
    25    12    14   ar
    26    14    15    1
    27    14     9   ar
    28     8     3    1
    29    25    20   ar
    30    27    28    1
    31    27    29    1
@<TRIPOS>MOLECULE
*****
 29 31 0 0 0
SMALL
GASTEIGER

@<TRIPOS>ATOM
      1 C         143.2524  143.6750  162.0742 C.2     1  UNL1        0.2548
      2 O         144.5424  144.4300  162.2001 O.2     1  UNL1       -0.2694
      3 N         142.5808  143.1282  163.2990 N.am    1  UNL1       -0.2757
      4 C         143.1993  143.3364  164.6496 C.3     1  UNL1        0.0941
      5 C         142.5277  142.7896  165.8743 C.3     1  UNL1        0.0259
      6 C         141.2377  142.0346  165.7484 C.3     1  UNL1        0.0257
      7 C         140.6192  141.8264  164.3978 C.3     1  UNL1        0.0259
      8 C         141.2908  142.3732  163.1731 C.3     1  UNL1        0.0941
      9 C         142.1732  142.5971  158.5051 C.ar    1  UNL1        0.1747
     10 S         143.0648  142.4556  159.7030 S.2     1  UNL1       -0.0459
     11 C         142.6339  143.4668  160.7236 C.ar    1  UNL1        0.0824
     12 C         141.4759  144.2334  160.1565 C.ar    1  UNL1       -0.0017
     13 C         140.7331  145.3426  160.8404 C.3     1  UNL1        0.0323
     14 C         141.1911  143.6959  158.7854 C.ar    1  UNL1        0.0716
     15 BR        140.1136  144.1732  157.8575 Br      1  UNL1       -0.0456
     16 O         142.2500  141.7829  157.2477 O.3     1  UNL1       -0.4692
     17 C         143.0681  142.2690  156.0882 C.3     1  UNL1        0.2061
     18 C         145.2450  141.0546  156.8202 C.3     1  UNL1        0.0040
     19 C         144.5657  142.2121  156.1505 C.3     1  UNL1        0.0474
     20 C         140.5661  141.4878  166.9732 C.ar    1  UNL1       -0.0227
     21 C         139.7374  140.2410  166.8807 C.ar    1  UNL1       -0.0043
     22 C         139.0658  139.6942  168.1056 C.ar    1  UNL1       -0.0006
     23 C         139.2230  140.3943  169.4228 C.ar    1  UNL1       -0.0030
     24 C         140.0518  141.6412  169.5153 C.ar    1  UNL1       -0.0069
     25 C         140.7233  142.1879  168.2905 C.ar    1  UNL1       -0.0072
     26 C         140.2091  142.3412  170.8325 C.3     1  UNL1        0.0922
     27 N         139.2057  143.3717  171.2587 N.3     1  UNL1       -0.3175
     28 H         139.2557  144.1746  170.6316 H       1  UNL1        0.1192
     29 H         139.4102  143.6715  172.2119 H       1  UNL1        0.1192
@<TRIPOS>BOND
     1    18    19    1
     2    19    17    1
     3    17    16    1
     4    16     9    1
     5     9    10   ar
     6    10    11   ar
     7    11     1    1
     8     1     2    2
     9     1     3   am
    10     3     4    1
    11     4     5    1
    12     5     6    1
    13     6    20    1
    14    20    21   ar
    15    21    22   ar
    16    22    23   ar
    17    23    24   ar
    18    24    26    1
    19    26    27    1
    20    24    25   ar
    21     6     7    1
    22     7     8    1
    23    11    12   ar
    24    12    13    1
    25    12    14   ar
    26    14    15    1
    27    14     9   ar
    28     8     3    1
    29    25    20   ar
    30    27    28    1
    31    27    29    1
