@<TRIPOS>MOLECULE
*****
 33 37 0 0 0
SMALL
GASTEIGER

@<TRIPOS>ATOM
      1 N         141.4750  145.5782  159.8366 N.3     1  UNL1       -0.3181
      2 C         141.3488  144.1134  160.1341 C.3     1  UNL1        0.1112
      3 H         140.5771  145.9380  159.5130 H       1  UNL1        0.1190
      4 H         142.1786  145.7185  159.1116 H       1  UNL1        0.1190
      5 C         140.0341  143.4186  159.9369 C.3     1  UNL1        0.2222
      6 O         138.8705  143.7495  160.8236 O.3     1  UNL1       -0.4727
      7 C         139.0226  143.6884  162.3146 C.ar    1  UNL1        0.1538
      8 C         139.3848  144.9248  163.0828 C.ar    1  UNL1        0.0382
      9 C         139.5369  144.8637  164.5739 C.ar    1  UNL1        0.0032
     10 C         139.3269  143.5663  165.2967 C.ar    1  UNL1        0.0012
     11 C         138.9647  142.3299  164.5284 C.ar    1  UNL1        0.0145
     12 C         138.7546  141.0324  165.2512 C.2     1  UNL1       -0.0151
     13 C         138.3925  139.7960  164.4830 C.3     1  UNL1        0.1132
     14 C         138.2403  139.8571  162.9920 C.2     1  UNL1        0.2501
     15 O         137.8782  138.6207  162.2238 O.2     1  UNL1       -0.2726
     16 N         138.4504  141.1545  162.2692 N.am    1  UNL1       -0.1759
     17 C         138.8126  142.3909  163.0375 C.ar    1  UNL1        0.1068
     18 C         142.5373  143.3435  160.6287 C.3     1  UNL1        0.0916
     19 N         142.5809  142.8619  162.0487 N.3     1  UNL1       -0.2712
     20 C         142.9139  143.8184  163.1551 C.3     1  UNL1        0.0757
     21 C         142.9576  143.3369  164.5750 C.3     1  UNL1        0.0577
     22 C         142.6682  141.8988  164.8885 C.3     1  UNL1        0.1399
     23 C         142.3351  140.9423  163.7821 C.3     1  UNL1        0.0577
     24 C         142.2915  141.4239  162.3622 C.3     1  UNL1        0.0757
     25 C         142.4031  140.4973  165.3528 C.3     1  UNL1        0.0695
     26 C         142.5557  140.4665  166.8448 C.ar    1  UNL1        0.0175
     27 C         142.4138  139.3583  167.8456 C.ar    1  UNL1        0.0285
     28 C         142.6312  139.6325  169.3042 C.ar    1  UNL1        0.1400
     29 F         142.4894  138.5243  170.3049 F       1  UNL1       -0.2042
     30 C         142.9906  141.0150  169.7620 C.ar    1  UNL1        0.0327
     31 C         143.1325  142.1233  168.7611 C.ar    1  UNL1        0.0389
     32 C         142.9150  141.8491  167.3025 C.ar    1  UNL1        0.1344
     33 O         142.9846  142.7343  166.0936 O.3     1  UNL1       -0.4825
@<TRIPOS>BOND
     1     2     1    1
     2     2     5    1
     3     5     6    1
     4     6     7    1
     5     7     8   ar
     6     8     9   ar
     7     9    10   ar
     8    10    11   ar
     9    11    12    2
    10    12    13    1
    11    13    14    1
    12    14    15    2
    13    14    16    1
    14    16    17    2
    15     2    18    1
    16    18    19    1
    17    19    20    1
    18    20    21    1
    19    21    22    1
    20    22    23    1
    21    23    24    1
    22    22    25    1
    23    25    26    1
    24    26    27   ar
    25    27    28   ar
    26    28    29    1
    27    28    30   ar
    28    30    31   ar
    29    31    32   ar
    30    32    33    1
    31    17     7   ar
    32    24    19    1
    33    32    26   ar
    34    17    11   ar
    35    33    22    1
    36     1     3    1
    37     1     4    1
@<TRIPOS>MOLECULE
*****
 33 37 0 0 0
SMALL
GASTEIGER

@<TRIPOS>ATOM
      1 N         142.8712  136.9600  160.5181 N.3     1  UNL1       -0.3181
      2 C         142.3885  138.2156  161.1818 C.3     1  UNL1        0.1112
      3 H         142.1273  136.5758  159.9355 H       1  UNL1        0.1190
      4 H         143.1322  136.2778  161.2301 H       1  UNL1        0.1190
      5 C         140.9944  138.7087  160.9298 C.3     1  UNL1        0.2222
      6 O         139.8289  138.0312  161.5874 O.3     1  UNL1       -0.4727
      7 C         139.3071  138.5406  162.8982 C.ar    1  UNL1        0.1538
      8 C         139.3349  137.6580  164.1106 C.ar    1  UNL1        0.0382
      9 C         138.8131  138.1675  165.4214 C.ar    1  UNL1        0.0032
     10 C         138.2634  139.5596  165.5197 C.ar    1  UNL1        0.0012
     11 C         138.2355  140.4423  164.3073 C.ar    1  UNL1        0.0145
     12 C         137.6858  141.8345  164.4056 C.2     1  UNL1       -0.0151
     13 C         137.6580  142.7172  163.1931 C.3     1  UNL1        0.1132
     14 C         138.1798  142.2077  161.8823 C.2     1  UNL1        0.2501
     15 O         138.1519  143.0904  160.6699 O.2     1  UNL1       -0.2726
     16 N         138.7294  140.8156  161.7840 N.am    1  UNL1       -0.1759
     17 C         138.7573  139.9329  162.9965 C.ar    1  UNL1        0.1068
     18 C         143.2997  138.9780  162.0973 C.3     1  UNL1        0.0916
     19 N         142.8053  139.4346  163.4380 N.3     1  UNL1       -0.2712
     20 C         142.8841  138.5141  164.6197 C.3     1  UNL1        0.0757
     21 C         142.3898  138.9706  165.9602 C.3     1  UNL1        0.0577
     22 C         141.8166  140.3477  166.1191 C.3     1  UNL1        0.1399
     23 C         141.7379  141.2682  164.9374 C.3     1  UNL1        0.0577
     24 C         142.2322  140.8116  163.5968 C.3     1  UNL1        0.0757
     25 C         141.2216  141.6892  166.4293 C.3     1  UNL1        0.0695
     26 C         140.8677  141.7135  167.8868 C.ar    1  UNL1        0.0175
     27 C         140.2514  142.7721  168.7525 C.ar    1  UNL1        0.0285
     28 C         140.0115  142.5043  170.2088 C.ar    1  UNL1        0.1400
     29 F         139.3952  143.5629  171.0745 F       1  UNL1       -0.2042
     30 C         140.3878  141.1778  170.7993 C.ar    1  UNL1        0.0327
     31 C         141.0041  140.1191  169.9336 C.ar    1  UNL1        0.0389
     32 C         141.2441  140.3870  168.4774 C.ar    1  UNL1        0.1344
     33 O         141.8305  139.5429  167.3849 O.3     1  UNL1       -0.4825
@<TRIPOS>BOND
     1     2     1    1
     2     2     5    1
     3     5     6    1
     4     6     7    1
     5     7     8   ar
     6     8     9   ar
     7     9    10   ar
     8    10    11   ar
     9    11    12    2
    10    12    13    1
    11    13    14    1
    12    14    15    2
    13    14    16    1
    14    16    17    2
    15     2    18    1
    16    18    19    1
    17    19    20    1
    18    20    21    1
    19    21    22    1
    20    22    23    1
    21    23    24    1
    22    22    25    1
    23    25    26    1
    24    26    27   ar
    25    27    28   ar
    26    28    29    1
    27    28    30   ar
    28    30    31   ar
    29    31    32   ar
    30    32    33    1
    31    17     7   ar
    32    24    19    1
    33    32    26   ar
    34    17    11   ar
    35    33    22    1
    36     1     3    1
    37     1     4    1
@<TRIPOS>MOLECULE
*****
 33 37 0 0 0
SMALL
GASTEIGER

@<TRIPOS>ATOM
      1 N         139.1537  137.5327  161.6229 N.3     1  UNL1       -0.3181
      2 C         140.5687  137.6044  162.1153 C.3     1  UNL1        0.1112
      3 H         139.1109  137.8700  160.6612 H       1  UNL1        0.1190
      4 H         138.5582  138.1131  162.2136 H       1  UNL1        0.1190
      5 C         141.6516  138.1179  161.2133 C.3     1  UNL1        0.2222
      6 O         141.9326  139.5896  161.1412 O.3     1  UNL1       -0.4727
      7 C         142.7769  140.2444  162.1939 C.ar    1  UNL1        0.1538
      8 C         144.1844  139.7793  162.4229 C.ar    1  UNL1        0.0382
      9 C         145.0288  140.4342  163.4757 C.ar    1  UNL1        0.0032
     10 C         144.4655  141.5541  164.2994 C.ar    1  UNL1        0.0012
     11 C         143.0580  142.0192  164.0704 C.ar    1  UNL1        0.0145
     12 C         142.4947  143.1391  164.8941 C.2     1  UNL1       -0.0151
     13 C         141.0871  143.6042  164.6650 C.3     1  UNL1        0.1132
     14 C         140.2428  142.9493  163.6123 C.2     1  UNL1        0.2501
     15 O         138.8352  143.4144  163.3833 O.2     1  UNL1       -0.2726
     16 N         140.8061  141.8294  162.7886 N.am    1  UNL1       -0.1759
     17 C         142.2136  141.3644  163.0176 C.ar    1  UNL1        0.1068
     18 C         140.9008  137.1626  163.5098 C.3     1  UNL1        0.0916
     19 N         141.0836  138.1812  164.5957 N.3     1  UNL1       -0.2712
     20 C         139.9432  139.0739  164.9864 C.3     1  UNL1        0.0757
     21 C         140.1260  140.0924  166.0723 C.3     1  UNL1        0.0577
     22 C         141.4493  140.2182  166.7675 C.3     1  UNL1        0.1399
     23 C         142.5896  139.3256  166.3768 C.3     1  UNL1        0.0577
     24 C         142.4068  138.3071  165.2909 C.3     1  UNL1        0.0757
     25 C         142.7075  140.4588  167.5480 C.3     1  UNL1        0.0695
     26 C         142.4418  141.5643  168.5265 C.ar    1  UNL1        0.0175
     27 C         143.3113  142.2250  169.5547 C.ar    1  UNL1        0.0285
     28 C         142.7584  143.3284  170.4073 C.ar    1  UNL1        0.1400
     29 F         143.6279  143.9892  171.4355 F       1  UNL1       -0.2042
     30 C         141.3361  143.7712  170.2315 C.ar    1  UNL1        0.0327
     31 C         140.4665  143.1104  169.2032 C.ar    1  UNL1        0.0389
     32 C         141.0194  142.0070  168.3507 C.ar    1  UNL1        0.1344
     33 O         140.4060  141.1751  167.2636 O.3     1  UNL1       -0.4825
@<TRIPOS>BOND
     1     2     1    1
     2     2     5    1
     3     5     6    1
     4     6     7    1
     5     7     8   ar
     6     8     9   ar
     7     9    10   ar
     8    10    11   ar
     9    11    12    2
    10    12    13    1
    11    13    14    1
    12    14    15    2
    13    14    16    1
    14    16    17    2
    15     2    18    1
    16    18    19    1
    17    19    20    1
    18    20    21    1
    19    21    22    1
    20    22    23    1
    21    23    24    1
    22    22    25    1
    23    25    26    1
    24    26    27   ar
    25    27    28   ar
    26    28    29    1
    27    28    30   ar
    28    30    31   ar
    29    31    32   ar
    30    32    33    1
    31    17     7   ar
    32    24    19    1
    33    32    26   ar
    34    17    11   ar
    35    33    22    1
    36     1     3    1
    37     1     4    1
@<TRIPOS>MOLECULE
*****
 33 37 0 0 0
SMALL
GASTEIGER

@<TRIPOS>ATOM
      1 N         141.9368  145.2853  159.9111 N.3     1  UNL1       -0.3181
      2 C         141.0015  144.8051  160.9809 C.3     1  UNL1        0.1112
      3 H         141.7533  144.7773  159.0458 H       1  UNL1        0.1190
      4 H         142.9003  145.1221  160.2034 H       1  UNL1        0.1190
      5 C         139.9995  143.7316  160.6745 C.3     1  UNL1        0.2222
      6 O         140.3015  142.3033  161.0194 O.3     1  UNL1       -0.4727
      7 C         139.5795  141.6368  162.1527 C.ar    1  UNL1        0.1538
      8 C         138.1382  141.9579  162.4161 C.ar    1  UNL1        0.0382
      9 C         137.4162  141.2913  163.5495 C.ar    1  UNL1        0.0032
     10 C         138.1356  140.3036  164.4194 C.ar    1  UNL1        0.0012
     11 C         139.5770  139.9824  164.1560 C.ar    1  UNL1        0.0145
     12 C         140.2964  138.9946  165.0259 C.2     1  UNL1       -0.0151
     13 C         141.7377  138.6735  164.7625 C.3     1  UNL1        0.1132
     14 C         142.4596  139.3401  163.6292 C.2     1  UNL1        0.2501
     15 O         143.9010  139.0189  163.3658 O.2     1  UNL1       -0.2726
     16 N         141.7403  140.3278  162.7593 N.am    1  UNL1       -0.1759
     17 C         140.2989  140.6490  163.0227 C.ar    1  UNL1        0.1068
     18 C         141.0681  145.3982  162.3570 C.3     1  UNL1        0.0916
     19 N         141.1005  144.5019  163.5593 N.3     1  UNL1       -0.2712
     20 C         142.3386  143.7167  163.8762 C.3     1  UNL1        0.0757
     21 C         142.3710  142.8204  165.0786 C.3     1  UNL1        0.0577
     22 C         141.1653  142.7094  165.9639 C.3     1  UNL1        0.1399
     23 C         139.9272  143.4946  165.6470 C.3     1  UNL1        0.0577
     24 C         139.8948  144.3909  164.4447 C.3     1  UNL1        0.0757
     25 C         140.0428  142.4974  166.9362 C.3     1  UNL1        0.0695
     26 C         140.5097  141.5247  167.9783 C.ar    1  UNL1        0.0175
     27 C         139.8323  140.9431  169.1837 C.ar    1  UNL1        0.0285
     28 C         140.5658  139.9723  170.0608 C.ar    1  UNL1        0.1400
     29 F         139.8884  139.3907  171.2661 F       1  UNL1       -0.2042
     30 C         141.9767  139.5830  169.7326 C.ar    1  UNL1        0.0327
     31 C         142.6542  140.1646  168.5272 C.ar    1  UNL1        0.0389
     32 C         141.9207  141.1354  167.6501 C.ar    1  UNL1        0.1344
     33 O         142.3258  141.8676  166.4052 O.3     1  UNL1       -0.4825
@<TRIPOS>BOND
     1     2     1    1
     2     2     5    1
     3     5     6    1
     4     6     7    1
     5     7     8   ar
     6     8     9   ar
     7     9    10   ar
     8    10    11   ar
     9    11    12    2
    10    12    13    1
    11    13    14    1
    12    14    15    2
    13    14    16    1
    14    16    17    2
    15     2    18    1
    16    18    19    1
    17    19    20    1
    18    20    21    1
    19    21    22    1
    20    22    23    1
    21    23    24    1
    22    22    25    1
    23    25    26    1
    24    26    27   ar
    25    27    28   ar
    26    28    29    1
    27    28    30   ar
    28    30    31   ar
    29    31    32   ar
    30    32    33    1
    31    17     7   ar
    32    24    19    1
    33    32    26   ar
    34    17    11   ar
    35    33    22    1
    36     1     3    1
    37     1     4    1
@<TRIPOS>MOLECULE
*****
 33 37 0 0 0
SMALL
GASTEIGER

@<TRIPOS>ATOM
      1 N         141.8272  145.5430  159.3977 N.3     1  UNL1       -0.3181
      2 C         141.6479  144.1683  159.9703 C.3     1  UNL1        0.1112
      3 H         142.7519  145.6167  158.9736 H       1  UNL1        0.1190
      4 H         141.7381  146.2354  160.1414 H       1  UNL1        0.1190
      5 C         142.7525  143.1595  159.8590 C.3     1  UNL1        0.2222
      6 O         144.0266  143.3548  160.6262 O.3     1  UNL1       -0.4727
      7 C         144.0214  143.2668  162.1235 C.ar    1  UNL1        0.1538
      8 C         144.0165  144.5195  162.9485 C.ar    1  UNL1        0.0382
      9 C         144.0113  144.4315  164.4459 C.ar    1  UNL1        0.0032
     10 C         144.0111  143.0907  165.1184 C.ar    1  UNL1        0.0012
     11 C         144.0161  141.8379  164.2934 C.ar    1  UNL1        0.0145
     12 C         144.0159  140.4971  164.9659 C.2     1  UNL1       -0.0151
     13 C         144.0208  139.2443  164.1409 C.3     1  UNL1        0.1132
     14 C         144.0260  139.3323  162.6436 C.2     1  UNL1        0.2501
     15 O         144.0309  138.0796  161.8186 O.2     1  UNL1       -0.2726
     16 N         144.0262  140.6731  161.9711 N.am    1  UNL1       -0.1759
     17 C         144.0212  141.9259  162.7961 C.ar    1  UNL1        0.1068
     18 C         140.3640  143.8022  160.6542 C.3     1  UNL1        0.0916
     19 N         140.3741  143.3859  162.0952 N.3     1  UNL1       -0.2712
     20 C         140.3945  144.4257  163.1762 C.3     1  UNL1        0.0757
     21 C         140.4045  144.0093  164.6172 C.3     1  UNL1        0.0577
     22 C         140.3941  142.5532  164.9772 C.3     1  UNL1        0.1399
     23 C         140.3736  141.5134  163.8963 C.3     1  UNL1        0.0577
     24 C         140.3636  141.9298  162.4553 C.3     1  UNL1        0.0757
     25 C         140.3855  141.1427  165.4875 C.3     1  UNL1        0.0695
     26 C         140.4006  141.1920  166.9867 C.ar    1  UNL1        0.0175
     27 C         140.4003  140.1109  168.0266 C.ar    1  UNL1        0.0285
     28 C         140.4179  140.4709  169.4826 C.ar    1  UNL1        0.1400
     29 F         140.4177  139.3898  170.5225 F       1  UNL1       -0.2042
     30 C         140.4357  141.9118  169.8989 C.ar    1  UNL1        0.0327
     31 C         140.4359  142.9929  168.8590 C.ar    1  UNL1        0.0389
     32 C         140.4184  142.6330  167.4029 C.ar    1  UNL1        0.1344
     33 O         140.4144  143.4743  166.1610 O.3     1  UNL1       -0.4825
@<TRIPOS>BOND
     1     2     1    1
     2     2     5    1
     3     5     6    1
     4     6     7    1
     5     7     8   ar
     6     8     9   ar
     7     9    10   ar
     8    10    11   ar
     9    11    12    2
    10    12    13    1
    11    13    14    1
    12    14    15    2
    13    14    16    1
    14    16    17    2
    15     2    18    1
    16    18    19    1
    17    19    20    1
    18    20    21    1
    19    21    22    1
    20    22    23    1
    21    23    24    1
    22    22    25    1
    23    25    26    1
    24    26    27   ar
    25    27    28   ar
    26    28    29    1
    27    28    30   ar
    28    30    31   ar
    29    31    32   ar
    30    32    33    1
    31    17     7   ar
    32    24    19    1
    33    32    26   ar
    34    17    11   ar
    35    33    22    1
    36     1     3    1
    37     1     4    1
@<TRIPOS>MOLECULE
*****
 33 37 0 0 0
SMALL
GASTEIGER

@<TRIPOS>ATOM
      1 N         139.8137  141.1321  158.8125 N.3     1  UNL1       -0.3181
      2 C         138.8696  141.2169  159.9751 C.3     1  UNL1        0.1112
      3 H         139.8693  142.0409  158.3528 H       1  UNL1        0.1190
      4 H         139.4743  140.4356  158.1491 H       1  UNL1        0.1190
      5 C         138.1837  142.5129  160.2913 C.3     1  UNL1        0.2222
      6 O         138.9509  143.6302  160.9339 O.3     1  UNL1       -0.4727
      7 C         139.0381  143.7174  162.4288 C.ar    1  UNL1        0.1538
      8 C         137.8362  144.1266  163.2276 C.ar    1  UNL1        0.0382
      9 C         137.9235  144.2138  164.7226 C.ar    1  UNL1        0.0032
     10 C         139.2126  143.8918  165.4186 C.ar    1  UNL1        0.0012
     11 C         140.4145  143.4826  164.6198 C.ar    1  UNL1        0.0145
     12 C         141.7036  143.1607  165.3158 C.2     1  UNL1       -0.0151
     13 C         142.9054  142.7515  164.5170 C.3     1  UNL1        0.1132
     14 C         142.8182  142.6643  163.0221 C.2     1  UNL1        0.2501
     15 O         144.0200  142.2552  162.2233 O.2     1  UNL1       -0.2726
     16 N         141.5291  142.9863  162.3261 N.am    1  UNL1       -0.1759
     17 C         140.3272  143.3954  163.1249 C.ar    1  UNL1        0.1068
     18 C         138.6115  140.0057  160.8215 C.3     1  UNL1        0.0916
     19 N         139.0550  139.9836  162.2543 N.3     1  UNL1       -0.2712
     20 C         140.4753  139.6419  162.5947 C.3     1  UNL1        0.0757
     21 C         140.9187  139.6198  164.0274 C.3     1  UNL1        0.0577
     22 C         139.9417  139.9394  165.1199 C.3     1  UNL1        0.1399
     23 C         138.5214  140.2812  164.7796 C.3     1  UNL1        0.0577
     24 C         138.0780  140.3032  163.3468 C.3     1  UNL1        0.0757
     25 C         139.0826  140.2354  166.3134 C.3     1  UNL1        0.0695
     26 C         139.9321  140.0964  167.5419 C.ar    1  UNL1        0.0175
     27 C         139.6241  140.2682  168.9998 C.ar    1  UNL1        0.0285
     28 C         140.7001  140.0581  170.0236 C.ar    1  UNL1        0.1400
     29 F         140.3921  140.2299  171.4815 F       1  UNL1       -0.2042
     30 C         142.0842  139.6763  169.5894 C.ar    1  UNL1        0.0327
     31 C         142.3922  139.5045  168.1314 C.ar    1  UNL1        0.0389
     32 C         141.3162  139.7145  167.1077 C.ar    1  UNL1        0.1344
     33 O         141.3222  139.6175  165.6108 O.3     1  UNL1       -0.4825
@<TRIPOS>BOND
     1     2     1    1
     2     2     5    1
     3     5     6    1
     4     6     7    1
     5     7     8   ar
     6     8     9   ar
     7     9    10   ar
     8    10    11   ar
     9    11    12    2
    10    12    13    1
    11    13    14    1
    12    14    15    2
    13    14    16    1
    14    16    17    2
    15     2    18    1
    16    18    19    1
    17    19    20    1
    18    20    21    1
    19    21    22    1
    20    22    23    1
    21    23    24    1
    22    22    25    1
    23    25    26    1
    24    26    27   ar
    25    27    28   ar
    26    28    29    1
    27    28    30   ar
    28    30    31   ar
    29    31    32   ar
    30    32    33    1
    31    17     7   ar
    32    24    19    1
    33    32    26   ar
    34    17    11   ar
    35    33    22    1
    36     1     3    1
    37     1     4    1
@<TRIPOS>MOLECULE
*****
 33 37 0 0 0
SMALL
GASTEIGER

@<TRIPOS>ATOM
      1 N         139.8826  141.0175  158.8206 N.3     1  UNL1       -0.3181
      2 C         138.9034  141.1655  159.9472 C.3     1  UNL1        0.1112
      3 H         139.9827  141.9104  158.3377 H       1  UNL1        0.1190
      4 H         139.5434  140.3129  158.1657 H       1  UNL1        0.1190
      5 C         138.2492  142.4909  160.2031 C.3     1  UNL1        0.2222
      6 O         139.0232  143.5948  160.8604 O.3     1  UNL1       -0.4727
      7 C         139.0746  143.6869  162.3566 C.ar    1  UNL1        0.1538
      8 C         137.8469  144.0733  163.1270 C.ar    1  UNL1        0.0382
      9 C         137.8984  144.1653  164.6233 C.ar    1  UNL1        0.0032
     10 C         139.1776  143.8710  165.3492 C.ar    1  UNL1        0.0012
     11 C         140.4053  143.4847  164.5789 C.ar    1  UNL1        0.0145
     12 C         141.6845  143.1904  165.3048 C.2     1  UNL1       -0.0151
     13 C         142.9123  142.8041  164.5345 C.3     1  UNL1        0.1132
     14 C         142.8608  142.7120  163.0383 C.2     1  UNL1        0.2501
     15 O         144.0885  142.3256  162.2679 O.2     1  UNL1       -0.2726
     16 N         141.5816  143.0063  162.3123 N.am    1  UNL1       -0.1759
     17 C         140.3539  143.3926  163.0827 C.ar    1  UNL1        0.1068
     18 C         138.5784  139.9881  160.8179 C.3     1  UNL1        0.0916
     19 N         139.0144  139.9736  162.2531 N.3     1  UNL1       -0.2712
     20 C         138.0298  140.2910  163.3393 C.3     1  UNL1        0.0757
     21 C         138.4658  140.2765  164.7744 C.3     1  UNL1        0.0577
     22 C         139.8864  139.9445  165.1234 C.3     1  UNL1        0.1399
     23 C         140.8710  139.6271  164.0372 C.3     1  UNL1        0.0577
     24 C         140.4349  139.6416  162.6021 C.3     1  UNL1        0.0757
     25 C         141.2661  139.6327  165.6226 C.3     1  UNL1        0.0695
     26 C         141.2517  139.7347  167.1191 C.ar    1  UNL1        0.0175
     27 C         142.3236  139.5347  168.1492 C.ar    1  UNL1        0.0285
     28 C         142.0068  139.7096  169.6049 C.ar    1  UNL1        0.1400
     29 F         143.0787  139.5095  170.6349 F       1  UNL1       -0.2042
     30 C         140.6183  140.0845  170.0306 C.ar    1  UNL1        0.0327
     31 C         139.5463  140.2845  169.0005 C.ar    1  UNL1        0.0389
     32 C         139.8630  140.1097  167.5448 C.ar    1  UNL1        0.1344
     33 O         139.0193  140.2393  166.3114 O.3     1  UNL1       -0.4825
@<TRIPOS>BOND
     1     2     1    1
     2     2     5    1
     3     5     6    1
     4     6     7    1
     5     7     8   ar
     6     8     9   ar
     7     9    10   ar
     8    10    11   ar
     9    11    12    2
    10    12    13    1
    11    13    14    1
    12    14    15    2
    13    14    16    1
    14    16    17    2
    15     2    18    1
    16    18    19    1
    17    19    20    1
    18    20    21    1
    19    21    22    1
    20    22    23    1
    21    23    24    1
    22    22    25    1
    23    25    26    1
    24    26    27   ar
    25    27    28   ar
    26    28    29    1
    27    28    30   ar
    28    30    31   ar
    29    31    32   ar
    30    32    33    1
    31    17     7   ar
    32    24    19    1
    33    32    26   ar
    34    17    11   ar
    35    33    22    1
    36     1     3    1
    37     1     4    1
@<TRIPOS>MOLECULE
*****
 33 37 0 0 0
SMALL
GASTEIGER

@<TRIPOS>ATOM
      1 N         140.9890  138.8800  158.9484 N.3     1  UNL1       -0.3181
      2 C         140.9765  138.5060  160.4010 C.3     1  UNL1        0.1112
      3 H         140.0305  138.9438  158.6055 H       1  UNL1        0.1190
      4 H         141.4930  138.1689  158.4186 H       1  UNL1        0.1190
      5 C         139.6716  138.2908  161.1088 C.3     1  UNL1        0.2222
      6 O         138.9810  139.4434  161.7756 O.3     1  UNL1       -0.4727
      7 C         138.9562  139.5386  163.2723 C.ar    1  UNL1        0.1538
      8 C         138.6296  138.3280  164.0956 C.ar    1  UNL1        0.0382
      9 C         138.6048  138.4233  165.5924 C.ar    1  UNL1        0.0032
     10 C         138.9065  139.7291  166.2659 C.ar    1  UNL1        0.0012
     11 C         139.2331  140.9398  165.4426 C.ar    1  UNL1        0.0145
     12 C         139.5348  142.2456  166.1161 C.2     1  UNL1       -0.0151
     13 C         139.8613  143.4563  165.2929 C.3     1  UNL1        0.1132
     14 C         139.8861  143.3610  163.7961 C.2     1  UNL1        0.2501
     15 O         140.2127  144.5717  162.9729 O.2     1  UNL1       -0.2726
     16 N         139.5844  142.0552  163.1226 N.am    1  UNL1       -0.1759
     17 C         139.2579  140.8445  163.9459 C.ar    1  UNL1        0.1068
     18 C         142.2688  138.3473  161.1457 C.3     1  UNL1        0.0916
     19 N         142.3849  138.8364  162.5590 N.3     1  UNL1       -0.2712
     20 C         142.1563  137.8910  163.7010 C.3     1  UNL1        0.0757
     21 C         142.2725  138.3801  165.1142 C.3     1  UNL1        0.0577
     22 C         142.6173  139.8145  165.3855 C.3     1  UNL1        0.1399
     23 C         142.8459  140.7599  164.2436 C.3     1  UNL1        0.0577
     24 C         142.7297  140.2708  162.8303 C.3     1  UNL1        0.0757
     25 C         142.9533  141.2136  165.8095 C.3     1  UNL1        0.0695
     26 C         142.9615  141.2541  167.3090 C.ar    1  UNL1        0.0175
     27 C         143.2276  142.3646  168.2816 C.ar    1  UNL1        0.0285
     28 C         143.1627  142.1012  169.7569 C.ar    1  UNL1        0.1400
     29 F         143.4288  143.2117  170.7295 F       1  UNL1       -0.2042
     30 C         142.8317  140.7273  170.2596 C.ar    1  UNL1        0.0327
     31 C         142.5655  139.6167  169.2870 C.ar    1  UNL1        0.0389
     32 C         142.6305  139.8801  167.8117 C.ar    1  UNL1        0.1344
     33 O         142.4177  138.9904  166.6229 O.3     1  UNL1       -0.4825
@<TRIPOS>BOND
     1     2     1    1
     2     2     5    1
     3     5     6    1
     4     6     7    1
     5     7     8   ar
     6     8     9   ar
     7     9    10   ar
     8    10    11   ar
     9    11    12    2
    10    12    13    1
    11    13    14    1
    12    14    15    2
    13    14    16    1
    14    16    17    2
    15     2    18    1
    16    18    19    1
    17    19    20    1
    18    20    21    1
    19    21    22    1
    20    22    23    1
    21    23    24    1
    22    22    25    1
    23    25    26    1
    24    26    27   ar
    25    27    28   ar
    26    28    29    1
    27    28    30   ar
    28    30    31   ar
    29    31    32   ar
    30    32    33    1
    31    17     7   ar
    32    24    19    1
    33    32    26   ar
    34    17    11   ar
    35    33    22    1
    36     1     3    1
    37     1     4    1
@<TRIPOS>MOLECULE
*****
 33 37 0 0 0
SMALL
GASTEIGER

@<TRIPOS>ATOM
      1 N         143.4608  139.1814  158.7992 N.3     1  UNL1       -0.3181
      2 C         143.8277  139.4957  160.2193 C.3     1  UNL1        0.1112
      3 H         143.5567  140.0219  158.2293 H       1  UNL1        0.1190
      4 H         142.4957  138.8537  158.7620 H       1  UNL1        0.1190
      5 C         144.2531  140.8845  160.5942 C.3     1  UNL1        0.2222
      6 O         143.2614  141.8360  161.1952 O.3     1  UNL1       -0.4727
      7 C         143.3887  142.2426  162.6334 C.ar    1  UNL1        0.1538
      8 C         144.7467  142.4208  163.2450 C.ar    1  UNL1        0.0382
      9 C         144.8739  142.8274  164.6833 C.ar    1  UNL1        0.0032
     10 C         143.6432  143.0557  165.5098 C.ar    1  UNL1        0.0012
     11 C         142.2852  142.8775  164.8982 C.ar    1  UNL1        0.0145
     12 C         141.0545  143.1058  165.7247 C.2     1  UNL1       -0.0151
     13 C         139.6966  142.9276  165.1130 C.3     1  UNL1        0.1132
     14 C         139.5693  142.5210  163.6748 C.2     1  UNL1        0.2501
     15 O         138.2113  142.3428  163.0632 O.2     1  UNL1       -0.2726
     16 N         140.8000  142.2927  162.8483 N.am    1  UNL1       -0.1759
     17 C         142.1580  142.4709  163.4600 C.ar    1  UNL1        0.1068
     18 C         143.7694  138.4213  161.2643 C.3     1  UNL1        0.0916
     19 N         143.1967  138.7219  162.6178 N.3     1  UNL1       -0.2712
     20 C         141.7104  138.8043  162.8019 C.3     1  UNL1        0.0757
     21 C         141.1378  139.1048  164.1554 C.3     1  UNL1        0.0577
     22 C         142.0516  139.3230  165.3247 C.3     1  UNL1        0.1399
     23 C         143.5380  139.2406  165.1406 C.3     1  UNL1        0.0577
     24 C         144.1105  138.9401  163.7872 C.3     1  UNL1        0.0757
     25 C         142.8362  139.5630  166.5804 C.3     1  UNL1        0.0695
     26 C         141.8634  139.8247  167.6919 C.ar    1  UNL1        0.0175
     27 C         142.0604  140.1241  169.1485 C.ar    1  UNL1        0.0285
     28 C         140.8716  140.3452  170.0362 C.ar    1  UNL1        0.1400
     29 F         141.0686  140.6447  171.4927 F       1  UNL1       -0.2042
     30 C         139.4859  140.2668  169.4674 C.ar    1  UNL1        0.0327
     31 C         139.2889  139.9674  168.0108 C.ar    1  UNL1        0.0389
     32 C         140.4776  139.7463  167.1231 C.ar    1  UNL1        0.1344
     33 O         140.5939  139.4362  165.6601 O.3     1  UNL1       -0.4825
@<TRIPOS>BOND
     1     2     1    1
     2     2     5    1
     3     5     6    1
     4     6     7    1
     5     7     8   ar
     6     8     9   ar
     7     9    10   ar
     8    10    11   ar
     9    11    12    2
    10    12    13    1
    11    13    14    1
    12    14    15    2
    13    14    16    1
    14    16    17    2
    15     2    18    1
    16    18    19    1
    17    19    20    1
    18    20    21    1
    19    21    22    1
    20    22    23    1
    21    23    24    1
    22    22    25    1
    23    25    26    1
    24    26    27   ar
    25    27    28   ar
    26    28    29    1
    27    28    30   ar
    28    30    31   ar
    29    31    32   ar
    30    32    33    1
    31    17     7   ar
    32    24    19    1
    33    32    26   ar
    34    17    11   ar
    35    33    22    1
    36     1     3    1
    37     1     4    1
