@<TRIPOS>MOLECULE
*****
 28 30 0 0 0
SMALL
GASTEIGER

@<TRIPOS>ATOM
      1 N         142.1183  143.5967  161.8311 N.3     1  UNL1       -0.2682
      2 C         142.9891  144.2576  162.8583 C.3     1  UNL1        0.0897
      3 C         143.3111  143.5456  164.1386 C.3     1  UNL1        0.0899
      4 N         142.7623  142.1728  164.3919 N.3     1  UNL1       -0.2665
      5 C         141.8916  141.5119  163.3648 C.3     1  UNL1        0.0899
      6 C         141.5696  142.2238  162.0844 C.3     1  UNL1        0.0897
      7 C         141.7963  144.3087  160.5507 C.3     1  UNL1        0.1056
      8 O         139.6973  144.8650  159.1244 O.3     1  UNL1       -0.3793
      9 C         140.4813  145.0131  160.3946 C.3     1  UNL1        0.1700
     10 H         138.8785  145.3812  159.1878 H       1  UNL1        0.2106
     11 C         139.9503  145.8658  161.5086 C.3     1  UNL1        0.2358
     12 O         138.6416  145.5233  162.1568 O.3     1  UNL1       -0.4728
     13 C         138.5201  144.2830  162.9917 C.ar    1  UNL1        0.1388
     14 C         139.1862  144.2140  164.3338 C.ar    1  UNL1        0.0392
     15 C         139.0646  142.9737  165.1686 C.ar    1  UNL1        0.0327
     16 C         138.2768  141.8024  164.6612 C.ar    1  UNL1        0.1403
     17 F         138.1552  140.5621  165.4960 F       1  UNL1       -0.2042
     18 C         137.6107  141.8714  163.3190 C.ar    1  UNL1        0.0327
     19 C         137.7323  143.1117  162.4843 C.ar    1  UNL1        0.0392
     20 C         143.0843  141.4608  165.6723 C.3     1  UNL1        0.0992
     21 C         142.0432  141.3395  166.7453 C.ar    1  UNL1       -0.0052
     22 C         141.3023  140.0482  166.9290 C.ar    1  UNL1       -0.0020
     23 C         140.2612  139.9269  168.0019 C.ar    1  UNL1        0.0120
     24 C         139.9609  141.0969  168.8914 C.ar    1  UNL1        0.0682
     25 CL        138.9198  140.9755  169.9644 Cl      1  UNL1       -0.0814
     26 C         140.7018  142.3882  168.7078 C.ar    1  UNL1        0.0679
     27 CL        140.4015  143.5581  169.5971 Cl      1  UNL1       -0.0814
     28 C         141.7429  142.5095  167.6347 C.ar    1  UNL1        0.0093
@<TRIPOS>BOND
     1     9     8    1
     2     9    11    1
     3    11    12    1
     4    12    13    1
     5    13    14   ar
     6    14    15   ar
     7    15    16   ar
     8    16    17    1
     9    16    18   ar
    10    18    19   ar
    11     9     7    1
    12     7     1    1
    13     1     2    1
    14     2     3    1
    15     3     4    1
    16     4    20    1
    17    20    21    1
    18    21    22   ar
    19    22    23   ar
    20    23    24   ar
    21    24    25    1
    22    24    26   ar
    23    26    27    1
    24    26    28   ar
    25     4     5    1
    26     5     6    1
    27    19    13   ar
    28     6     1    1
    29    28    21   ar
    30     8    10    1
@<TRIPOS>MOLECULE
*****
 28 30 0 0 0
SMALL
GASTEIGER

@<TRIPOS>ATOM
      1 N         142.7719  140.8043  162.3862 N.3     1  UNL1       -0.2682
      2 C         143.0863  140.6464  163.8444 C.3     1  UNL1        0.0897
      3 C         142.0343  140.9348  164.8740 C.3     1  UNL1        0.0899
      4 N         140.6679  141.3812  164.4454 N.3     1  UNL1       -0.2665
      5 C         140.3535  141.5392  162.9873 C.3     1  UNL1        0.0899
      6 C         141.4055  141.2508  161.9577 C.3     1  UNL1        0.0897
      7 C         143.8239  140.5159  161.3566 C.3     1  UNL1        0.1056
      8 O         144.1218  139.2202  159.1245 O.3     1  UNL1       -0.3793
      9 C         143.7868  139.2292  160.5866 C.3     1  UNL1        0.1700
     10 H         144.0500  138.3156  158.7819 H       1  UNL1        0.2106
     11 C         143.4146  137.9514  161.2786 C.3     1  UNL1        0.2358
     12 O         142.0233  137.4061  161.1492 O.3     1  UNL1       -0.4728
     13 C         141.0382  137.5915  162.2651 C.ar    1  UNL1        0.1388
     14 C         139.6252  137.9914  161.9594 C.ar    1  UNL1        0.0392
     15 C         138.6401  138.1767  163.0753 C.ar    1  UNL1        0.0327
     16 C         139.0681  137.9622  164.4969 C.ar    1  UNL1        0.1403
     17 F         138.0830  138.1475  165.6128 F       1  UNL1       -0.2042
     18 C         140.4811  137.5623  164.8026 C.ar    1  UNL1        0.0327
     19 C         141.4661  137.3769  163.6867 C.ar    1  UNL1        0.0392
     20 C         139.6159  141.6697  165.4750 C.3     1  UNL1        0.0992
     21 C         139.9295  141.5093  166.9331 C.ar    1  UNL1       -0.0052
     22 C         139.6947  140.1916  167.6103 C.ar    1  UNL1       -0.0020
     23 C         140.0083  140.0313  169.0683 C.ar    1  UNL1        0.0120
     24 C         140.5568  141.1886  169.8493 C.ar    1  UNL1        0.0682
     25 CL        140.8704  141.0283  171.3073 Cl      1  UNL1       -0.0814
     26 C         140.7915  142.5063  169.1721 C.ar    1  UNL1        0.0679
     27 CL        141.3399  143.6637  169.9530 Cl      1  UNL1       -0.0814
     28 C         140.4779  142.6667  167.7140 C.ar    1  UNL1        0.0093
@<TRIPOS>BOND
     1     9     8    1
     2     9    11    1
     3    11    12    1
     4    12    13    1
     5    13    14   ar
     6    14    15   ar
     7    15    16   ar
     8    16    17    1
     9    16    18   ar
    10    18    19   ar
    11     9     7    1
    12     7     1    1
    13     1     2    1
    14     2     3    1
    15     3     4    1
    16     4    20    1
    17    20    21    1
    18    21    22   ar
    19    22    23   ar
    20    23    24   ar
    21    24    25    1
    22    24    26   ar
    23    26    27    1
    24    26    28   ar
    25     4     5    1
    26     5     6    1
    27    19    13   ar
    28     6     1    1
    29    28    21   ar
    30     8    10    1
@<TRIPOS>MOLECULE
*****
 28 30 0 0 0
SMALL
GASTEIGER

@<TRIPOS>ATOM
      1 N         138.6687  139.7771  159.7695 N.3     1  UNL1       -0.2682
      2 C         137.5559  139.4362  160.7158 C.3     1  UNL1        0.0897
      3 C         137.8530  138.7014  161.9893 C.3     1  UNL1        0.0899
      4 N         139.2629  138.3074  162.3165 N.3     1  UNL1       -0.2665
      5 C         140.3756  138.6483  161.3702 C.3     1  UNL1        0.0899
      6 C         140.0786  139.3832  160.0967 C.3     1  UNL1        0.0897
      7 C         138.3717  140.5119  158.4960 C.3     1  UNL1        0.1056
      8 O         137.6579  142.7151  157.3184 O.3     1  UNL1       -0.3793
      9 C         138.2388  142.0060  158.5058 C.3     1  UNL1        0.1700
     10 H         137.6436  143.6701  157.4873 H       1  UNL1        0.2106
     11 C         138.6867  142.7910  159.7029 C.3     1  UNL1        0.2358
     12 O         137.7400  143.0269  160.8423 O.3     1  UNL1       -0.4728
     13 C         138.2508  143.0338  162.2527 C.ar    1  UNL1        0.1388
     14 C         137.7231  144.0356  163.2365 C.ar    1  UNL1        0.0392
     15 C         138.2338  144.0424  164.6468 C.ar    1  UNL1        0.0327
     16 C         139.2722  143.0475  165.0733 C.ar    1  UNL1        0.1403
     17 F         139.7830  143.0544  166.4837 F       1  UNL1       -0.2042
     18 C         139.7999  142.0457  164.0895 C.ar    1  UNL1        0.0327
     19 C         139.2892  142.0389  162.6792 C.ar    1  UNL1        0.0392
     20 C         139.5599  137.5726  163.5899 C.3     1  UNL1        0.0992
     21 C         139.6191  138.3186  164.8900 C.ar    1  UNL1       -0.0052
     22 C         138.3825  138.4679  165.7259 C.ar    1  UNL1       -0.0020
     23 C         138.4416  139.2138  167.0259 C.ar    1  UNL1        0.0120
     24 C         139.7373  139.8104  167.4901 C.ar    1  UNL1        0.0682
     25 CL        139.7963  140.5563  168.7901 Cl      1  UNL1       -0.0814
     26 C         140.9738  139.6611  166.6542 C.ar    1  UNL1        0.0679
     27 CL        142.2694  140.2576  167.1184 Cl      1  UNL1       -0.0814
     28 C         140.9147  138.9151  165.3542 C.ar    1  UNL1        0.0093
@<TRIPOS>BOND
     1     9     8    1
     2     9    11    1
     3    11    12    1
     4    12    13    1
     5    13    14   ar
     6    14    15   ar
     7    15    16   ar
     8    16    17    1
     9    16    18   ar
    10    18    19   ar
    11     9     7    1
    12     7     1    1
    13     1     2    1
    14     2     3    1
    15     3     4    1
    16     4    20    1
    17    20    21    1
    18    21    22   ar
    19    22    23   ar
    20    23    24   ar
    21    24    25    1
    22    24    26   ar
    23    26    27    1
    24    26    28   ar
    25     4     5    1
    26     5     6    1
    27    19    13   ar
    28     6     1    1
    29    28    21   ar
    30     8    10    1
@<TRIPOS>MOLECULE
*****
 28 30 0 0 0
SMALL
GASTEIGER

@<TRIPOS>ATOM
      1 N         140.1694  139.0514  160.0711 N.3     1  UNL1       -0.2682
      2 C         139.2116  138.1581  160.8025 C.3     1  UNL1        0.0897
      3 C         138.4633  138.6769  161.9944 C.3     1  UNL1        0.0899
      4 N         138.6728  140.0890  162.4552 N.3     1  UNL1       -0.2665
      5 C         139.6305  140.9822  161.7239 C.3     1  UNL1        0.0899
      6 C         140.3789  140.4634  160.5319 C.3     1  UNL1        0.0897
      7 C         140.9177  138.5326  158.8791 C.3     1  UNL1        0.1056
      8 O         143.2195  137.9490  157.8250 O.3     1  UNL1       -0.3793
      9 C         142.3329  138.0589  159.0300 C.3     1  UNL1        0.1700
     10 H         144.0948  137.6305  158.0957 H       1  UNL1        0.2106
     11 C         142.8615  137.6951  160.3858 C.3     1  UNL1        0.2358
     12 O         143.5131  138.7403  161.2420 O.3     1  UNL1       -0.4728
     13 C         143.2780  138.7496  162.7235 C.ar    1  UNL1        0.1388
     14 C         144.3439  139.2572  163.6488 C.ar    1  UNL1        0.0392
     15 C         144.1088  139.2665  165.1302 C.ar    1  UNL1        0.0327
     16 C         142.8079  138.7683  165.6863 C.ar    1  UNL1        0.1403
     17 F         142.5728  138.7776  167.1678 F       1  UNL1       -0.2042
     18 C         141.7420  138.2607  164.7610 C.ar    1  UNL1        0.0327
     19 C         141.9771  138.2514  163.2796 C.ar    1  UNL1        0.0392
     20 C         137.9245  140.6078  163.6472 C.3     1  UNL1        0.0992
     21 C         138.5057  140.4563  165.0217 C.ar    1  UNL1       -0.0052
     22 C         138.0373  139.3467  165.9159 C.ar    1  UNL1       -0.0020
     23 C         138.6184  139.1952  167.2904 C.ar    1  UNL1        0.0120
     24 C         139.6679  140.1533  167.7708 C.ar    1  UNL1        0.0682
     25 CL        140.2490  140.0017  169.1453 Cl      1  UNL1       -0.0814
     26 C         140.1362  141.2629  166.8767 C.ar    1  UNL1        0.0679
     27 CL        141.1856  142.2209  167.3571 Cl      1  UNL1       -0.0814
     28 C         139.5550  141.4144  165.5021 C.ar    1  UNL1        0.0093
@<TRIPOS>BOND
     1     9     8    1
     2     9    11    1
     3    11    12    1
     4    12    13    1
     5    13    14   ar
     6    14    15   ar
     7    15    16   ar
     8    16    17    1
     9    16    18   ar
    10    18    19   ar
    11     9     7    1
    12     7     1    1
    13     1     2    1
    14     2     3    1
    15     3     4    1
    16     4    20    1
    17    20    21    1
    18    21    22   ar
    19    22    23   ar
    20    23    24   ar
    21    24    25    1
    22    24    26   ar
    23    26    27    1
    24    26    28   ar
    25     4     5    1
    26     5     6    1
    27    19    13   ar
    28     6     1    1
    29    28    21   ar
    30     8    10    1
@<TRIPOS>MOLECULE
*****
 28 30 0 0 0
SMALL
GASTEIGER

@<TRIPOS>ATOM
      1 N         140.5965  142.3128  161.0937 N.3     1  UNL1       -0.2682
      2 C         141.9331  141.7741  161.5103 C.3     1  UNL1        0.0897
      3 C         142.0155  140.6851  162.5385 C.3     1  UNL1        0.0899
      4 N         140.7613  140.1347  163.1502 N.3     1  UNL1       -0.2665
      5 C         139.4248  140.6733  162.7337 C.3     1  UNL1        0.0899
      6 C         139.3423  141.7624  161.7054 C.3     1  UNL1        0.0897
      7 C         140.5141  143.4018  160.0655 C.3     1  UNL1        0.1056
      8 O         141.9467  145.5503  159.7800 O.3     1  UNL1       -0.3793
      9 C         140.8202  144.8194  160.4484 C.3     1  UNL1        0.1700
     10 H         142.0085  146.4486  160.1407 H       1  UNL1        0.2106
     11 C         139.9998  145.5062  161.4998 C.3     1  UNL1        0.2358
     12 O         140.6458  145.9679  162.7723 O.3     1  UNL1       -0.4728
     13 C         141.4565  145.0088  163.5928 C.ar    1  UNL1        0.1388
     14 C         142.9546  145.0777  163.5642 C.ar    1  UNL1        0.0392
     15 C         143.7652  144.1187  164.3846 C.ar    1  UNL1        0.0327
     16 C         143.0777  143.0908  165.2336 C.ar    1  UNL1        0.1403
     17 F         143.8884  142.1317  166.0541 F       1  UNL1       -0.2042
     18 C         141.5796  143.0219  165.2622 C.ar    1  UNL1        0.0327
     19 C         140.7690  143.9809  164.4418 C.ar    1  UNL1        0.0392
     20 C         140.8437  139.0457  164.1784 C.3     1  UNL1        0.0992
     21 C         140.6397  139.3671  165.6293 C.ar    1  UNL1       -0.0052
     22 C         139.2528  139.4180  166.1984 C.ar    1  UNL1       -0.0020
     23 C         139.0488  139.7394  167.6493 C.ar    1  UNL1        0.0120
     24 C         140.2317  140.0099  168.5311 C.ar    1  UNL1        0.0682
     25 CL        140.0277  140.3313  169.9820 Cl      1  UNL1       -0.0814
     26 C         141.6186  139.9590  167.9620 C.ar    1  UNL1        0.0679
     27 CL        142.8015  140.2295  168.8438 Cl      1  UNL1       -0.0814
     28 C         141.8226  139.6376  166.5111 C.ar    1  UNL1        0.0093
@<TRIPOS>BOND
     1     9     8    1
     2     9    11    1
     3    11    12    1
     4    12    13    1
     5    13    14   ar
     6    14    15   ar
     7    15    16   ar
     8    16    17    1
     9    16    18   ar
    10    18    19   ar
    11     9     7    1
    12     7     1    1
    13     1     2    1
    14     2     3    1
    15     3     4    1
    16     4    20    1
    17    20    21    1
    18    21    22   ar
    19    22    23   ar
    20    23    24   ar
    21    24    25    1
    22    24    26   ar
    23    26    27    1
    24    26    28   ar
    25     4     5    1
    26     5     6    1
    27    19    13   ar
    28     6     1    1
    29    28    21   ar
    30     8    10    1
@<TRIPOS>MOLECULE
*****
 28 30 0 0 0
SMALL
GASTEIGER

@<TRIPOS>ATOM
      1 N         141.5090  144.1424  162.3901 N.3     1  UNL1       -0.2682
      2 C         141.4784  142.6569  162.1841 C.3     1  UNL1        0.0897
      3 C         142.1165  141.7467  163.1912 C.3     1  UNL1        0.0899
      4 N         142.7853  142.3220  164.4044 N.3     1  UNL1       -0.2665
      5 C         142.8159  143.8074  164.6105 C.3     1  UNL1        0.0899
      6 C         142.1778  144.7177  163.6033 C.3     1  UNL1        0.0897
      7 C         140.8710  145.0525  161.3830 C.3     1  UNL1        0.1056
      8 O         139.2134  147.0102  160.9707 O.3     1  UNL1       -0.3793
      9 C         139.5972  145.7691  161.7206 C.3     1  UNL1        0.1700
     10 H         138.3690  147.3453  161.3107 H       1  UNL1        0.2106
     11 C         138.7072  145.2446  162.8082 C.3     1  UNL1        0.2358
     12 O         137.8519  144.0375  162.5606 O.3     1  UNL1       -0.4728
     13 C         138.0830  142.7806  163.3460 C.ar    1  UNL1        0.1388
     14 C         138.8103  142.8382  164.6566 C.ar    1  UNL1        0.0392
     15 C         139.0414  141.5813  165.4419 C.ar    1  UNL1        0.0327
     16 C         138.5452  140.2668  164.9166 C.ar    1  UNL1        0.1403
     17 F         138.7764  139.0099  165.7020 F       1  UNL1       -0.2042
     18 C         137.8179  140.2092  163.6060 C.ar    1  UNL1        0.0327
     19 C         137.5868  141.4661  162.8207 C.ar    1  UNL1        0.0392
     20 C         143.4233  141.4118  165.4116 C.3     1  UNL1        0.0992
     21 C         142.8058  141.2440  166.7683 C.ar    1  UNL1       -0.0052
     22 C         141.9143  140.0701  167.0465 C.ar    1  UNL1       -0.0020
     23 C         141.2968  139.9023  168.4031 C.ar    1  UNL1        0.0120
     24 C         141.5706  140.9083  169.4815 C.ar    1  UNL1        0.0682
     25 CL        140.9530  140.7405  170.8381 Cl      1  UNL1       -0.0814
     26 C         142.4620  142.0822  169.2033 C.ar    1  UNL1        0.0679
     27 CL        142.7358  143.0882  170.2816 Cl      1  UNL1       -0.0814
     28 C         143.0796  142.2500  167.8466 C.ar    1  UNL1        0.0093
@<TRIPOS>BOND
     1     9     8    1
     2     9    11    1
     3    11    12    1
     4    12    13    1
     5    13    14   ar
     6    14    15   ar
     7    15    16   ar
     8    16    17    1
     9    16    18   ar
    10    18    19   ar
    11     9     7    1
    12     7     1    1
    13     1     2    1
    14     2     3    1
    15     3     4    1
    16     4    20    1
    17    20    21    1
    18    21    22   ar
    19    22    23   ar
    20    23    24   ar
    21    24    25    1
    22    24    26   ar
    23    26    27    1
    24    26    28   ar
    25     4     5    1
    26     5     6    1
    27    19    13   ar
    28     6     1    1
    29    28    21   ar
    30     8    10    1
@<TRIPOS>MOLECULE
*****
 28 30 0 0 0
SMALL
GASTEIGER

@<TRIPOS>ATOM
      1 N         142.3313  139.9483  162.5538 N.3     1  UNL1       -0.2682
      2 C         141.5950  140.8763  163.4741 C.3     1  UNL1        0.0897
      3 C         141.7555  140.7429  164.9595 C.3     1  UNL1        0.0899
      4 N         142.6522  139.6815  165.5247 N.3     1  UNL1       -0.2665
      5 C         143.3884  138.7535  164.6045 C.3     1  UNL1        0.0899
      6 C         143.2279  138.8869  163.1190 C.3     1  UNL1        0.0897
      7 C         142.1708  140.0818  161.0685 C.3     1  UNL1        0.1056
      8 O         142.5434  137.9113  159.6901 O.3     1  UNL1       -0.3793
      9 C         141.6175  138.9401  160.2683 C.3     1  UNL1        0.1700
     10 H         142.0275  137.2479  159.2057 H       1  UNL1        0.2106
     11 C         140.1383  138.8270  160.0464 C.3     1  UNL1        0.2358
     12 O         139.3127  137.9410  160.9314 O.3     1  UNL1       -0.4728
     13 C         139.0260  138.3508  162.3456 C.ar    1  UNL1        0.1388
     14 C         139.5636  137.5378  163.4857 C.ar    1  UNL1        0.0392
     15 C         139.2769  137.9477  164.8998 C.ar    1  UNL1        0.0327
     16 C         138.4525  139.1706  165.1738 C.ar    1  UNL1        0.1403
     17 F         138.1658  139.5805  166.5880 F       1  UNL1       -0.2042
     18 C         137.9149  139.9836  164.0336 C.ar    1  UNL1        0.0327
     19 C         138.2016  139.5737  162.6195 C.ar    1  UNL1        0.0392
     20 C         142.8126  139.5480  167.0101 C.3     1  UNL1        0.0992
     21 C         142.0262  140.4323  167.9319 C.ar    1  UNL1       -0.0052
     22 C         142.5503  141.7894  168.2975 C.ar    1  UNL1       -0.0020
     23 C         141.7639  142.6737  169.2192 C.ar    1  UNL1        0.0120
     24 C         140.4535  142.2009  169.7754 C.ar    1  UNL1        0.0682
     25 CL        139.6671  143.0852  170.6972 Cl      1  UNL1       -0.0814
     26 C         139.9294  140.8438  169.4098 C.ar    1  UNL1        0.0679
     27 CL        138.6191  140.3710  169.9659 Cl      1  UNL1       -0.0814
     28 C         140.7158  139.9595  168.4880 C.ar    1  UNL1        0.0093
@<TRIPOS>BOND
     1     9     8    1
     2     9    11    1
     3    11    12    1
     4    12    13    1
     5    13    14   ar
     6    14    15   ar
     7    15    16   ar
     8    16    17    1
     9    16    18   ar
    10    18    19   ar
    11     9     7    1
    12     7     1    1
    13     1     2    1
    14     2     3    1
    15     3     4    1
    16     4    20    1
    17    20    21    1
    18    21    22   ar
    19    22    23   ar
    20    23    24   ar
    21    24    25    1
    22    24    26   ar
    23    26    27    1
    24    26    28   ar
    25     4     5    1
    26     5     6    1
    27    19    13   ar
    28     6     1    1
    29    28    21   ar
    30     8    10    1
@<TRIPOS>MOLECULE
*****
 28 30 0 0 0
SMALL
GASTEIGER

@<TRIPOS>ATOM
      1 N         140.8853  142.1847  162.3412 N.3     1  UNL1       -0.2682
      2 C         141.5638  140.9628  162.8859 C.3     1  UNL1        0.0897
      3 C         142.3650  141.0509  164.1509 C.3     1  UNL1        0.0899
      4 N         142.4877  142.3609  164.8712 N.3     1  UNL1       -0.2665
      5 C         141.8093  143.5828  164.3266 C.3     1  UNL1        0.0899
      6 C         141.0081  143.4947  163.0615 C.3     1  UNL1        0.0897
      7 C         140.0841  142.0966  161.0761 C.3     1  UNL1        0.1056
      8 O         138.1192  143.1229  159.7212 O.3     1  UNL1       -0.3793
      9 C         138.6955  142.6616  161.0270 C.3     1  UNL1        0.1700
     10 H         137.2202  143.4577  159.8648 H       1  UNL1        0.2106
     11 C         137.8831  142.7654  162.2838 C.3     1  UNL1        0.2358
     12 O         137.1080  141.5793  162.7758 O.3     1  UNL1       -0.4728
     13 C         137.8303  140.3994  163.3558 C.ar    1  UNL1        0.1388
     14 C         138.1655  139.2238  162.4866 C.ar    1  UNL1        0.0392
     15 C         138.8878  138.0441  163.0667 C.ar    1  UNL1        0.0327
     16 C         139.2747  138.0399  164.5159 C.ar    1  UNL1        0.1403
     17 F         139.9970  136.8600  165.0959 F       1  UNL1       -0.2042
     18 C         138.9395  139.2154  165.3851 C.ar    1  UNL1        0.0327
     19 C         138.2172  140.3952  164.8051 C.ar    1  UNL1        0.0392
     20 C         143.2889  142.4490  166.1362 C.3     1  UNL1        0.0992
     21 C         142.6661  142.0678  167.4466 C.ar    1  UNL1       -0.0052
     22 C         143.3766  142.3736  168.7318 C.ar    1  UNL1       -0.0020
     23 C         142.7539  141.9924  170.0421 C.ar    1  UNL1        0.0120
     24 C         141.4206  141.3055  170.0672 C.ar    1  UNL1        0.0682
     25 CL        140.7979  140.9243  171.3775 Cl      1  UNL1       -0.0814
     26 C         140.7101  140.9997  168.7820 C.ar    1  UNL1        0.0679
     27 CL        139.3769  140.3128  168.8071 Cl      1  UNL1       -0.0814
     28 C         141.3329  141.3809  167.4717 C.ar    1  UNL1        0.0093
@<TRIPOS>BOND
     1     9     8    1
     2     9    11    1
     3    11    12    1
     4    12    13    1
     5    13    14   ar
     6    14    15   ar
     7    15    16   ar
     8    16    17    1
     9    16    18   ar
    10    18    19   ar
    11     9     7    1
    12     7     1    1
    13     1     2    1
    14     2     3    1
    15     3     4    1
    16     4    20    1
    17    20    21    1
    18    21    22   ar
    19    22    23   ar
    20    23    24   ar
    21    24    25    1
    22    24    26   ar
    23    26    27    1
    24    26    28   ar
    25     4     5    1
    26     5     6    1
    27    19    13   ar
    28     6     1    1
    29    28    21   ar
    30     8    10    1
@<TRIPOS>MOLECULE
*****
 28 30 0 0 0
SMALL
GASTEIGER

@<TRIPOS>ATOM
      1 N         140.7982  138.9250  162.3899 N.3     1  UNL1       -0.2682
      2 C         140.9897  137.9984  163.5539 C.3     1  UNL1        0.0897
      3 C         141.8126  138.4323  164.7305 C.3     1  UNL1        0.0899
      4 N         142.4440  139.7928  164.7433 N.3     1  UNL1       -0.2665
      5 C         142.2525  140.7195  163.5794 C.3     1  UNL1        0.0899
      6 C         141.4296  140.2856  162.4027 C.3     1  UNL1        0.0897
      7 C         139.9753  138.4911  161.2133 C.3     1  UNL1        0.1056
      8 O         137.6415  137.4785  161.7405 O.3     1  UNL1       -0.3793
      9 C         138.4815  138.6219  161.2537 C.3     1  UNL1        0.1700
     10 H         136.7045  137.7266  161.7025 H       1  UNL1        0.2106
     11 C         137.8278  139.8961  160.8073 C.3     1  UNL1        0.2358
     12 O         137.0068  140.6966  161.7742 O.3     1  UNL1       -0.4728
     13 C         137.6811  141.4848  162.8578 C.ar    1  UNL1        0.1388
     14 C         138.1859  140.7898  164.0875 C.ar    1  UNL1        0.0392
     15 C         138.8602  141.5780  165.1710 C.ar    1  UNL1        0.0327
     16 C         139.0298  143.0612  165.0248 C.ar    1  UNL1        0.1403
     17 F         139.7041  143.8494  166.1083 F       1  UNL1       -0.2042
     18 C         138.5250  143.7562  163.7951 C.ar    1  UNL1        0.0327
     19 C         137.8507  142.9680  162.7116 C.ar    1  UNL1        0.0392
     20 C         143.2669  140.2267  165.9199 C.3     1  UNL1        0.0992
     21 C         142.6136  140.4451  167.2524 C.ar    1  UNL1       -0.0052
     22 C         142.6748  139.3753  168.3021 C.ar    1  UNL1       -0.0020
     23 C         142.0215  139.5936  169.6345 C.ar    1  UNL1        0.0120
     24 C         141.3070  140.8819  169.9174 C.ar    1  UNL1        0.0682
     25 CL        140.6537  141.1002  171.2499 Cl      1  UNL1       -0.0814
     26 C         141.2458  141.9517  168.8678 C.ar    1  UNL1        0.0679
     27 CL        140.5313  143.2399  169.1507 Cl      1  UNL1       -0.0814
     28 C         141.8991  141.7333  167.5353 C.ar    1  UNL1        0.0093
@<TRIPOS>BOND
     1     9     8    1
     2     9    11    1
     3    11    12    1
     4    12    13    1
     5    13    14   ar
     6    14    15   ar
     7    15    16   ar
     8    16    17    1
     9    16    18   ar
    10    18    19   ar
    11     9     7    1
    12     7     1    1
    13     1     2    1
    14     2     3    1
    15     3     4    1
    16     4    20    1
    17    20    21    1
    18    21    22   ar
    19    22    23   ar
    20    23    24   ar
    21    24    25    1
    22    24    26   ar
    23    26    27    1
    24    26    28   ar
    25     4     5    1
    26     5     6    1
    27    19    13   ar
    28     6     1    1
    29    28    21   ar
    30     8    10    1
