@<TRIPOS>MOLECULE
*****
 31 34 0 0 0
SMALL
GASTEIGER

@<TRIPOS>ATOM
      1 C         141.6492  143.4333  162.5161 C.ar    1  UNL1        0.1549
      2 C         141.6232  141.9782  162.1529 C.ar    1  UNL1        0.0553
      3 C         141.7137  140.9354  163.2273 C.ar    1  UNL1        0.1753
      4 F         141.6878  139.4802  162.8642 F       1  UNL1       -0.2009
      5 C         141.8302  141.3477  164.6648 C.ar    1  UNL1        0.1679
      6 C         141.8561  142.8028  165.0280 C.ar    1  UNL1        0.0702
      7 C         141.7656  143.8456  163.9536 C.ar    1  UNL1        0.1620
      8 F         141.7916  145.3008  164.3167 F       1  UNL1       -0.2026
      9 S         141.5587  144.4762  161.4417 S.O2    1  UNL1        0.0773
     10 O         140.1266  144.7298  161.8086 O.2     1  UNL1       -0.1498
     11 O         142.9908  144.2226  161.0748 O.2     1  UNL1       -0.1498
     12 N         141.4681  145.5191  160.3674 N.pl3   1  UNL1       -0.1925
     13 H         141.4523  146.4736  160.6080 H       1  UNL1        0.1758
     14 C         142.4913  145.1389  155.2012 C.3     1  UNL1        0.0744
     15 C         141.8721  144.9329  156.5517 C.ar    1  UNL1        0.1494
     16 N         140.7271  144.0162  156.8662 N.ar    1  UNL1       -0.1917
     17 S         140.4365  144.1242  158.3338 S.2     1  UNL1        0.0503
     18 C         141.4017  145.1076  158.9264 C.ar    1  UNL1        0.1973
     19 N         142.2890  145.6075  157.8251 N.ar    1  UNL1       -0.2068
     20 O         141.9207  140.3048  165.7392 O.3     1  UNL1       -0.4764
     21 C         140.7569  140.0693  166.6558 C.3     1  UNL1        0.1714
     22 C         140.7230  140.3529  168.1284 C.3     1  UNL1        0.0439
     23 C         139.3679  139.9678  168.6435 C.3     1  UNL1        0.0042
     24 C         138.5643  139.4463  167.4892 C.3     1  UNL1        0.0096
     25 C         139.4228  139.5090  166.2608 C.3     1  UNL1        0.0799
     26 C         139.0181  139.0858  164.8799 C.ar    1  UNL1        0.0603
     27 C         139.1984  137.7193  164.2881 C.ar    1  UNL1        0.0369
     28 C         138.6538  137.7438  162.8907 C.ar    1  UNL1        0.1213
     29 N         138.1369  139.1254  162.6187 N.ar    1  UNL1       -0.1679
     30 N         138.3621  139.9548  163.8481 N.ar    1  UNL1       -0.2527
     31 C         137.9956  141.3996  164.0162 C.3     1  UNL1        0.1533
@<TRIPOS>BOND
     1    14    15    1
     2    15    16   ar
     3    16    17   ar
     4    17    18   ar
     5    18    12    1
     6    12     9    1
     7     9    10    2
     8     9    11    2
     9     9     1    1
    10     1     2   ar
    11     2     3   ar
    12     3     4    1
    13     3     5   ar
    14     5    20    1
    15    21    20    1
    16    21    22    1
    17    22    23    1
    18    23    24    1
    19    24    25    1
    20    25    26    1
    21    26    27   ar
    22    27    28   ar
    23    28    29   ar
    24    29    30   ar
    25    30    31    1
    26     5     6   ar
    27     6     7   ar
    28     7     8    1
    29    18    19   ar
    30    19    15   ar
    31     7     1   ar
    32    25    21    1
    33    30    26   ar
    34    12    13    1
@<TRIPOS>MOLECULE
*****
 31 34 0 0 0
SMALL
GASTEIGER

@<TRIPOS>ATOM
      1 C         140.8712  143.9045  162.0835 C.ar    1  UNL1        0.1549
      2 C         140.2283  142.5678  161.8607 C.ar    1  UNL1        0.0553
      3 C         139.9085  141.6851  163.0305 C.ar    1  UNL1        0.1753
      4 F         139.2656  140.3482  162.8077 F       1  UNL1       -0.2009
      5 C         140.2317  142.1391  164.4231 C.ar    1  UNL1        0.1679
      6 C         140.8746  143.4759  164.6459 C.ar    1  UNL1        0.0702
      7 C         141.1944  144.3586  163.4761 C.ar    1  UNL1        0.1620
      8 F         141.8373  145.6954  163.6989 F       1  UNL1       -0.2026
      9 S         141.1910  144.7873  160.9137 S.O2    1  UNL1        0.0773
     10 O         139.7627  145.2430  160.8671 O.2     1  UNL1       -0.1498
     11 O         142.6194  144.3317  160.9602 O.2     1  UNL1       -0.1498
     12 N         141.5108  145.6701  159.7439 N.pl3   1  UNL1       -0.1925
     13 H         142.1293  146.4281  159.8538 H       1  UNL1        0.1758
     14 C         138.7827  146.2589  155.2614 C.3     1  UNL1        0.0744
     15 C         139.6341  145.6687  156.3462 C.ar    1  UNL1        0.1494
     16 N         140.2254  144.2901  156.3514 N.ar    1  UNL1       -0.1917
     17 S         141.0004  144.1229  157.6247 S.2     1  UNL1        0.0503
     18 C         140.8880  145.3980  158.4066 C.ar    1  UNL1        0.1973
     19 N         140.0436  146.3535  157.6165 N.ar    1  UNL1       -0.2068
     20 O         139.9119  141.2563  165.5930 O.3     1  UNL1       -0.4764
     21 C         141.0171  140.5662  166.3360 C.3     1  UNL1        0.1714
     22 C         141.5524  140.9562  167.6819 C.3     1  UNL1        0.0439
     23 C         142.6472  139.9959  168.0413 C.3     1  UNL1        0.0042
     24 C         142.7885  139.0124  166.9176 C.3     1  UNL1        0.0096
     25 C         141.7811  139.3649  165.8637 C.3     1  UNL1        0.0799
     26 C         141.5739  138.6427  164.5653 C.ar    1  UNL1        0.0603
     27 C         142.5291  138.6161  163.4091 C.ar    1  UNL1        0.0369
     28 C         141.9208  137.7774  162.3245 C.ar    1  UNL1        0.1213
     29 N         140.5896  137.2856  162.8104 N.ar    1  UNL1       -0.1679
     30 N         140.3752  137.8204  164.1953 N.ar    1  UNL1       -0.2527
     31 C         139.1732  137.5759  165.0586 C.3     1  UNL1        0.1533
@<TRIPOS>BOND
     1    14    15    1
     2    15    16   ar
     3    16    17   ar
     4    17    18   ar
     5    18    12    1
     6    12     9    1
     7     9    10    2
     8     9    11    2
     9     9     1    1
    10     1     2   ar
    11     2     3   ar
    12     3     4    1
    13     3     5   ar
    14     5    20    1
    15    21    20    1
    16    21    22    1
    17    22    23    1
    18    23    24    1
    19    24    25    1
    20    25    26    1
    21    26    27   ar
    22    27    28   ar
    23    28    29   ar
    24    29    30   ar
    25    30    31    1
    26     5     6   ar
    27     6     7   ar
    28     7     8    1
    29    18    19   ar
    30    19    15   ar
    31     7     1   ar
    32    25    21    1
    33    30    26   ar
    34    12    13    1
@<TRIPOS>MOLECULE
*****
 31 34 0 0 0
SMALL
GASTEIGER

@<TRIPOS>ATOM
      1 C         143.4619  139.1896  162.6019 C.ar    1  UNL1        0.1549
      2 C         142.3478  138.4081  163.2327 C.ar    1  UNL1        0.0553
      3 C         142.1417  138.4609  164.7175 C.ar    1  UNL1        0.1753
      4 F         141.0276  137.6793  165.3484 F       1  UNL1       -0.2009
      5 C         143.0498  139.2953  165.5715 C.ar    1  UNL1        0.1679
      6 C         144.1638  140.0768  164.9407 C.ar    1  UNL1        0.0702
      7 C         144.3699  140.0240  163.4559 C.ar    1  UNL1        0.1620
      8 F         145.4840  140.8056  162.8250 F       1  UNL1       -0.2026
      9 S         143.6680  139.1368  161.1170 S.O2    1  UNL1        0.0773
     10 O         144.0985  137.7043  161.2278 O.2     1  UNL1       -0.1498
     11 O         143.2375  140.5694  161.0063 O.2     1  UNL1       -0.1498
     12 N         143.8741  139.0840  159.6322 N.pl3   1  UNL1       -0.1925
     13 H         144.7040  139.4372  159.2376 H       1  UNL1        0.1758
     14 C         141.4778  136.2978  155.8407 C.3     1  UNL1        0.0744
     15 C         141.7143  137.2123  157.0058 C.ar    1  UNL1        0.1494
     16 N         140.6600  137.9549  157.7721 N.ar    1  UNL1       -0.1917
     17 S         141.3407  138.7464  158.8492 S.2     1  UNL1        0.0503
     18 C         142.8157  138.4930  158.7486 C.ar    1  UNL1        0.1973
     19 N         143.0467  137.5449  157.6094 N.ar    1  UNL1       -0.2068
     20 O         142.8437  139.3481  167.0564 O.3     1  UNL1       -0.4764
     21 C         142.2876  140.5873  167.6928 C.3     1  UNL1        0.1714
     22 C         143.0524  141.5654  168.5345 C.3     1  UNL1        0.0439
     23 C         142.1066  142.6486  168.9612 C.3     1  UNL1        0.0042
     24 C         140.7572  142.3399  168.3832 C.3     1  UNL1        0.0096
     25 C         140.8691  141.0660  167.5993 C.3     1  UNL1        0.0799
     26 C         139.7577  140.3895  166.8530 C.ar    1  UNL1        0.0603
     27 C         138.8254  139.3538  167.4081 C.ar    1  UNL1        0.0369
     28 C         137.8749  138.9541  166.3186 C.ar    1  UNL1        0.1213
     29 N         138.2197  139.7428  165.0902 N.ar    1  UNL1       -0.1679
     30 N         139.3834  140.6300  165.4205 N.ar    1  UNL1       -0.2527
     31 C         140.0548  141.5891  164.4828 C.3     1  UNL1        0.1533
@<TRIPOS>BOND
     1    14    15    1
     2    15    16   ar
     3    16    17   ar
     4    17    18   ar
     5    18    12    1
     6    12     9    1
     7     9    10    2
     8     9    11    2
     9     9     1    1
    10     1     2   ar
    11     2     3   ar
    12     3     4    1
    13     3     5   ar
    14     5    20    1
    15    21    20    1
    16    21    22    1
    17    22    23    1
    18    23    24    1
    19    24    25    1
    20    25    26    1
    21    26    27   ar
    22    27    28   ar
    23    28    29   ar
    24    29    30   ar
    25    30    31    1
    26     5     6   ar
    27     6     7   ar
    28     7     8    1
    29    18    19   ar
    30    19    15   ar
    31     7     1   ar
    32    25    21    1
    33    30    26   ar
    34    12    13    1
@<TRIPOS>MOLECULE
*****
 31 34 0 0 0
SMALL
GASTEIGER

@<TRIPOS>ATOM
      1 C         140.1759  143.5183  163.3142 C.ar    1  UNL1        0.1549
      2 C         140.5172  142.1138  162.9134 C.ar    1  UNL1        0.0553
      3 C         140.3427  140.9910  163.8926 C.ar    1  UNL1        0.1753
      4 F         140.6840  139.5864  163.4917 F       1  UNL1       -0.2009
      5 C         139.8269  141.2728  165.2726 C.ar    1  UNL1        0.1679
      6 C         139.4855  142.6773  165.6734 C.ar    1  UNL1        0.0702
      7 C         139.6600  143.8001  164.6942 C.ar    1  UNL1        0.1620
      8 F         139.3187  145.2047  165.0950 F       1  UNL1       -0.2026
      9 S         140.3504  144.6412  162.3350 S.O2    1  UNL1        0.0773
     10 O         138.9836  144.3695  161.7799 O.2     1  UNL1       -0.1498
     11 O         141.7171  144.9128  162.8900 O.2     1  UNL1       -0.1498
     12 N         140.5248  145.7639  161.3558 N.pl3   1  UNL1       -0.1925
     13 H         140.5402  146.6958  161.6730 H       1  UNL1        0.1758
     14 C         139.8586  145.8531  156.1184 C.3     1  UNL1        0.0744
     15 C         140.3695  145.5080  157.4858 C.ar    1  UNL1        0.1494
     16 N         141.4466  144.5120  157.7993 N.ar    1  UNL1       -0.1917
     17 S         141.6358  144.4867  159.2870 S.2     1  UNL1        0.0503
     18 C         140.6758  145.4670  159.8932 C.ar    1  UNL1        0.1973
     19 N         139.8932  146.0982  158.7800 N.ar    1  UNL1       -0.2068
     20 O         139.6523  140.1499  166.2518 O.3     1  UNL1       -0.4764
     21 C         140.5373  140.0639  167.4598 C.3     1  UNL1        0.1714
     22 C         140.0806  140.0557  168.8886 C.3     1  UNL1        0.0439
     23 C         141.2955  139.9578  169.7630 C.3     1  UNL1        0.0042
     24 C         142.5030  139.9055  168.8746 C.3     1  UNL1        0.0096
     25 C         142.0344  139.9711  167.4512 C.3     1  UNL1        0.0799
     26 C         142.9094  139.9479  166.2331 C.ar    1  UNL1        0.0603
     27 C         143.3569  138.7229  165.4921 C.ar    1  UNL1        0.0369
     28 C         144.2145  139.1637  164.3431 C.ar    1  UNL1        0.1213
     29 N         144.2970  140.6611  164.3739 N.ar    1  UNL1       -0.1679
     30 N         143.4904  141.1458  165.5420 N.ar    1  UNL1       -0.2527
     31 C         143.2985  142.5771  165.9477 C.3     1  UNL1        0.1533
@<TRIPOS>BOND
     1    14    15    1
     2    15    16   ar
     3    16    17   ar
     4    17    18   ar
     5    18    12    1
     6    12     9    1
     7     9    10    2
     8     9    11    2
     9     9     1    1
    10     1     2   ar
    11     2     3   ar
    12     3     4    1
    13     3     5   ar
    14     5    20    1
    15    21    20    1
    16    21    22    1
    17    22    23    1
    18    23    24    1
    19    24    25    1
    20    25    26    1
    21    26    27   ar
    22    27    28   ar
    23    28    29   ar
    24    29    30   ar
    25    30    31    1
    26     5     6   ar
    27     6     7   ar
    28     7     8    1
    29    18    19   ar
    30    19    15   ar
    31     7     1   ar
    32    25    21    1
    33    30    26   ar
    34    12    13    1
@<TRIPOS>MOLECULE
*****
 31 34 0 0 0
SMALL
GASTEIGER

@<TRIPOS>ATOM
      1 C         140.1395  143.6186  163.3059 C.ar    1  UNL1        0.1549
      2 C         140.2366  144.0174  164.7486 C.ar    1  UNL1        0.0553
      3 C         139.9510  143.0129  165.8253 C.ar    1  UNL1        0.1753
      4 F         140.0481  143.4117  167.2681 F       1  UNL1       -0.2009
      5 C         139.5682  141.6095  165.4593 C.ar    1  UNL1        0.1679
      6 C         139.4710  141.2107  164.0166 C.ar    1  UNL1        0.0702
      7 C         139.7566  142.2152  162.9399 C.ar    1  UNL1        0.1620
      8 F         139.6595  141.8164  161.4971 F       1  UNL1       -0.2026
      9 S         140.4251  144.6231  162.2292 S.O2    1  UNL1        0.0773
     10 O         141.8679  144.2129  162.2293 O.2     1  UNL1       -0.1498
     11 O         138.9823  145.0333  162.2290 O.2     1  UNL1       -0.1498
     12 N         140.7108  145.6276  161.1525 N.pl3   1  UNL1       -0.1925
     13 H         140.8230  146.5781  161.3832 H       1  UNL1        0.1758
     14 C         142.2765  145.2405  156.1245 C.3     1  UNL1        0.0744
     15 C         141.5453  145.0060  157.4130 C.ar    1  UNL1        0.1494
     16 N         140.4591  143.9965  157.6394 N.ar    1  UNL1       -0.1917
     17 S         140.0143  144.1065  159.0677 S.2     1  UNL1        0.0503
     18 C         140.8255  145.1839  159.7241 C.ar    1  UNL1        0.1973
     19 N         141.7717  145.7399  158.7016 N.ar    1  UNL1       -0.2068
     20 O         139.2825  140.6050  166.5361 O.3     1  UNL1       -0.4764
     21 C         140.3516  140.2380  167.5221 C.3     1  UNL1        0.1714
     22 C         140.2314  140.2985  169.0161 C.3     1  UNL1        0.0439
     23 C         141.5341  139.8440  169.6047 C.3     1  UNL1        0.0042
     24 C         142.4593  139.5026  168.4745 C.3     1  UNL1        0.0096
     25 C         141.7285  139.7461  167.1874 C.3     1  UNL1        0.0799
     26 C         142.2781  139.5348  165.8078 C.ar    1  UNL1        0.0603
     27 C         142.1363  138.2897  164.9834 C.ar    1  UNL1        0.0369
     28 C         142.8366  138.5169  163.6765 C.ar    1  UNL1        0.1213
     29 N         143.4113  139.9023  163.6932 N.ar    1  UNL1       -0.1679
     30 N         143.0661  140.5314  165.0105 N.ar    1  UNL1       -0.2527
     31 C         143.4428  141.9144  165.4527 C.3     1  UNL1        0.1533
@<TRIPOS>BOND
     1    14    15    1
     2    15    16   ar
     3    16    17   ar
     4    17    18   ar
     5    18    12    1
     6    12     9    1
     7     9    10    2
     8     9    11    2
     9     9     1    1
    10     1     2   ar
    11     2     3   ar
    12     3     4    1
    13     3     5   ar
    14     5    20    1
    15    21    20    1
    16    21    22    1
    17    22    23    1
    18    23    24    1
    19    24    25    1
    20    25    26    1
    21    26    27   ar
    22    27    28   ar
    23    28    29   ar
    24    29    30   ar
    25    30    31    1
    26     5     6   ar
    27     6     7   ar
    28     7     8    1
    29    18    19   ar
    30    19    15   ar
    31     7     1   ar
    32    25    21    1
    33    30    26   ar
    34    12    13    1
@<TRIPOS>MOLECULE
*****
 31 34 0 0 0
SMALL
GASTEIGER

@<TRIPOS>ATOM
      1 C         139.3122  139.2450  159.9923 C.ar    1  UNL1        0.1549
      2 C         140.5914  138.6748  160.5294 C.ar    1  UNL1        0.0553
      3 C         140.6195  138.0487  161.8922 C.ar    1  UNL1        0.1753
      4 F         141.8987  137.4785  162.4294 F       1  UNL1       -0.2009
      5 C         139.3684  137.9929  162.7178 C.ar    1  UNL1        0.1679
      6 C         138.0892  138.5630  162.1807 C.ar    1  UNL1        0.0702
      7 C         138.0611  139.1891  160.8179 C.ar    1  UNL1        0.1620
      8 F         136.7819  139.7593  160.2807 F       1  UNL1       -0.2026
      9 S         139.2841  139.8711  158.6294 S.O2    1  UNL1        0.0773
     10 O         139.3272  141.2339  159.2547 O.2     1  UNL1       -0.1498
     11 O         139.2409  138.5084  158.0042 O.2     1  UNL1       -0.1498
     12 N         139.2559  140.4972  157.2667 N.pl3   1  UNL1       -0.1925
     13 H         140.0762  140.8879  156.8874 H       1  UNL1        0.1758
     14 C         134.1235  140.5837  156.0290 C.3     1  UNL1        0.0744
     15 C         135.6189  140.5679  155.9129 C.ar    1  UNL1        0.1494
     16 N         136.4043  140.5836  154.6349 N.ar    1  UNL1       -0.1917
     17 S         137.8622  140.5591  154.9866 S.2     1  UNL1        0.0503
     18 C         137.9780  140.5282  156.4817 C.ar    1  UNL1        0.1973
     19 N         136.5916  140.5336  157.0543 N.ar    1  UNL1       -0.2068
     20 O         139.3966  137.3667  164.0807 O.3     1  UNL1       -0.4764
     21 C         139.2842  138.2275  165.3039 C.3     1  UNL1        0.1714
     22 C         138.0928  138.3201  166.2105 C.3     1  UNL1        0.0439
     23 C         138.4158  139.2966  167.3023 C.3     1  UNL1        0.0042
     24 C         139.8070  139.8075  167.0705 C.3     1  UNL1        0.0096
     25 C         140.3437  139.1468  165.8354 C.3     1  UNL1        0.0799
     26 C         141.7014  139.3667  165.2370 C.ar    1  UNL1        0.0603
     27 C         142.9485  138.6057  165.5768 C.ar    1  UNL1        0.0369
     28 C         144.0683  139.1550  164.7435 C.ar    1  UNL1        0.1213
     29 N         143.5132  140.2554  163.8886 N.ar    1  UNL1       -0.1679
     30 N         142.0504  140.3863  164.1936 N.ar    1  UNL1       -0.2527
     31 C         141.1029  141.3649  163.5654 C.3     1  UNL1        0.1533
@<TRIPOS>BOND
     1    14    15    1
     2    15    16   ar
     3    16    17   ar
     4    17    18   ar
     5    18    12    1
     6    12     9    1
     7     9    10    2
     8     9    11    2
     9     9     1    1
    10     1     2   ar
    11     2     3   ar
    12     3     4    1
    13     3     5   ar
    14     5    20    1
    15    21    20    1
    16    21    22    1
    17    22    23    1
    18    23    24    1
    19    24    25    1
    20    25    26    1
    21    26    27   ar
    22    27    28   ar
    23    28    29   ar
    24    29    30   ar
    25    30    31    1
    26     5     6   ar
    27     6     7   ar
    28     7     8    1
    29    18    19   ar
    30    19    15   ar
    31     7     1   ar
    32    25    21    1
    33    30    26   ar
    34    12    13    1
@<TRIPOS>MOLECULE
*****
 31 34 0 0 0
SMALL
GASTEIGER

@<TRIPOS>ATOM
      1 C         140.6198  143.6261  162.1457 C.ar    1  UNL1        0.1549
      2 C         140.4226  143.9956  163.5860 C.ar    1  UNL1        0.0553
      3 C         140.6591  142.9764  164.6608 C.ar    1  UNL1        0.1753
      4 F         140.4619  143.3459  166.1013 F       1  UNL1       -0.2009
      5 C         141.0927  141.5878  164.2954 C.ar    1  UNL1        0.1679
      6 C         141.2899  141.2183  162.8551 C.ar    1  UNL1        0.0702
      7 C         141.0534  142.2374  161.7802 C.ar    1  UNL1        0.1620
      8 F         141.2506  141.8679  160.3398 F       1  UNL1       -0.2026
      9 S         140.3833  144.6453  161.0707 S.O2    1  UNL1        0.0773
     10 O         141.8641  144.7837  160.8763 O.2     1  UNL1       -0.1498
     11 O         138.9024  144.5068  161.2652 O.2     1  UNL1       -0.1498
     12 N         140.1469  145.6644  159.9959 N.pl3   1  UNL1       -0.1925
     13 H         139.9084  146.5885  160.2376 H       1  UNL1        0.1758
     14 C         141.1262  145.8560  154.8107 C.3     1  UNL1        0.0744
     15 C         140.7239  145.3637  156.1693 C.ar    1  UNL1        0.1494
     16 N         140.2140  143.9909  156.4943 N.ar    1  UNL1       -0.1917
     17 S         139.9358  143.9365  157.9673 S.2     1  UNL1        0.0503
     18 C         140.2737  145.2756  158.5526 C.ar    1  UNL1        0.1973
     19 N         140.7608  146.1577  157.4415 N.ar    1  UNL1       -0.2068
     20 O         141.3292  140.5686  165.3703 O.3     1  UNL1       -0.4764
     21 C         140.1802  140.0659  166.1931 C.3     1  UNL1        0.1714
     22 C         140.0518  140.1687  167.6841 C.3     1  UNL1        0.0439
     23 C         138.7501  139.5385  168.0818 C.3     1  UNL1        0.0042
     24 C         138.0739  139.0462  166.8366 C.3     1  UNL1        0.0096
     25 C         138.9577  139.3722  165.6694 C.3     1  UNL1        0.0799
     26 C         138.6697  139.0593  164.2309 C.ar    1  UNL1        0.0603
     27 C         139.0046  137.7802  163.5226 C.ar    1  UNL1        0.0369
     28 C         138.5380  137.9010  162.1022 C.ar    1  UNL1        0.1213
     29 N         137.9147  139.2548  161.9325 N.ar    1  UNL1       -0.1679
     30 N         137.9961  139.9706  163.2482 N.ar    1  UNL1       -0.2527
     31 C         137.4923  141.3548  163.5314 C.3     1  UNL1        0.1533
@<TRIPOS>BOND
     1    14    15    1
     2    15    16   ar
     3    16    17   ar
     4    17    18   ar
     5    18    12    1
     6    12     9    1
     7     9    10    2
     8     9    11    2
     9     9     1    1
    10     1     2   ar
    11     2     3   ar
    12     3     4    1
    13     3     5   ar
    14     5    20    1
    15    21    20    1
    16    21    22    1
    17    22    23    1
    18    23    24    1
    19    24    25    1
    20    25    26    1
    21    26    27   ar
    22    27    28   ar
    23    28    29   ar
    24    29    30   ar
    25    30    31    1
    26     5     6   ar
    27     6     7   ar
    28     7     8    1
    29    18    19   ar
    30    19    15   ar
    31     7     1   ar
    32    25    21    1
    33    30    26   ar
    34    12    13    1
@<TRIPOS>MOLECULE
*****
 31 34 0 0 0
SMALL
GASTEIGER

@<TRIPOS>ATOM
      1 C         140.6679  143.9864  162.4494 C.ar    1  UNL1        0.1549
      2 C         139.8841  142.7233  162.2490 C.ar    1  UNL1        0.0553
      3 C         139.5926  141.8283  163.4168 C.ar    1  UNL1        0.1753
      4 F         138.8087  140.5651  163.2164 F       1  UNL1       -0.2009
      5 C         140.0849  142.1964  164.7851 C.ar    1  UNL1        0.1679
      6 C         140.8687  143.4595  164.9855 C.ar    1  UNL1        0.0702
      7 C         141.1602  144.3545  163.8176 C.ar    1  UNL1        0.1620
      8 F         141.9440  145.6177  164.0180 F       1  UNL1       -0.2026
      9 S         140.9594  144.8815  161.2815 S.O2    1  UNL1        0.0773
     10 O         142.3421  144.3078  161.1870 O.2     1  UNL1       -0.1498
     11 O         139.5767  145.4552  161.3760 O.2     1  UNL1       -0.1498
     12 N         141.2509  145.7766  160.1136 N.pl3   1  UNL1       -0.1925
     13 H         141.5053  146.7156  160.2646 H       1  UNL1        0.1758
     14 C         139.6405  143.0817  155.8680 C.3     1  UNL1        0.0744
     15 C         140.4147  144.0022  156.7643 C.ar    1  UNL1        0.1494
     16 N         141.5996  144.8310  156.3653 N.ar    1  UNL1       -0.1917
     17 S         142.0571  145.5965  157.5714 S.2     1  UNL1        0.0503
     18 C         141.1549  145.2409  158.7158 C.ar    1  UNL1        0.1973
     19 N         140.1399  144.2555  158.2171 N.ar    1  UNL1       -0.2068
     20 O         139.7934  141.3013  165.9530 O.3     1  UNL1       -0.4764
     21 C         140.9145  140.5903  166.6512 C.3     1  UNL1        0.1714
     22 C         141.7830  139.5195  166.0604 C.3     1  UNL1        0.0439
     23 C         142.7692  139.0926  167.1068 C.3     1  UNL1        0.0042
     24 C         142.5102  139.8997  168.3445 C.3     1  UNL1        0.0096
     25 C         141.3639  140.8253  168.0628 C.3     1  UNL1        0.0799
     26 C         140.7712  141.8125  169.0241 C.ar    1  UNL1        0.0603
     27 C         141.2217  143.2294  169.2226 C.ar    1  UNL1        0.0369
     28 C         140.3528  143.8487  170.2768 C.ar    1  UNL1        0.1213
     29 N         139.3652  142.8146  170.7299 N.ar    1  UNL1       -0.1679
     30 N         139.6239  141.5561  169.9557 N.ar    1  UNL1       -0.2527
     31 C         138.8678  140.2675  170.0896 C.3     1  UNL1        0.1533
@<TRIPOS>BOND
     1    14    15    1
     2    15    16   ar
     3    16    17   ar
     4    17    18   ar
     5    18    12    1
     6    12     9    1
     7     9    10    2
     8     9    11    2
     9     9     1    1
    10     1     2   ar
    11     2     3   ar
    12     3     4    1
    13     3     5   ar
    14     5    20    1
    15    21    20    1
    16    21    22    1
    17    22    23    1
    18    23    24    1
    19    24    25    1
    20    25    26    1
    21    26    27   ar
    22    27    28   ar
    23    28    29   ar
    24    29    30   ar
    25    30    31    1
    26     5     6   ar
    27     6     7   ar
    28     7     8    1
    29    18    19   ar
    30    19    15   ar
    31     7     1   ar
    32    25    21    1
    33    30    26   ar
    34    12    13    1
@<TRIPOS>MOLECULE
*****
 31 34 0 0 0
SMALL
GASTEIGER

@<TRIPOS>ATOM
      1 C         139.4224  142.8447  162.6419 C.ar    1  UNL1        0.1549
      2 C         140.7284  142.1463  162.8797 C.ar    1  UNL1        0.0553
      3 C         141.3571  142.1749  164.2412 C.ar    1  UNL1        0.1753
      4 F         142.6632  141.4765  164.4791 F       1  UNL1       -0.2009
      5 C         140.6799  142.9019  165.3650 C.ar    1  UNL1        0.1679
      6 C         139.3739  143.6003  165.1272 C.ar    1  UNL1        0.0702
      7 C         138.7452  143.5717  163.7656 C.ar    1  UNL1        0.1620
      8 F         137.4391  144.2701  163.5278 F       1  UNL1       -0.2026
      9 S         138.7936  142.8160  161.2803 S.O2    1  UNL1        0.0773
     10 O         137.7615  141.8477  161.7774 O.2     1  UNL1       -0.1498
     11 O         139.8257  143.7843  160.7833 O.2     1  UNL1       -0.1498
     12 N         138.1647  142.7874  159.9188 N.pl3   1  UNL1       -0.1925
     13 H         137.6177  143.5467  159.6132 H       1  UNL1        0.1758
     14 C         140.0508  138.2917  157.8908 C.3     1  UNL1        0.0744
     15 C         139.2364  139.5354  158.0908 C.ar    1  UNL1        0.1494
     16 N         138.1325  140.0195  157.1979 N.ar    1  UNL1       -0.1917
     17 S         137.5967  141.2966  157.7740 S.2     1  UNL1        0.0503
     18 C         138.3694  141.6018  159.0229 C.ar    1  UNL1        0.1973
     19 N         139.3828  140.5134  159.2188 N.ar    1  UNL1       -0.2068
     20 O         141.3087  142.9306  166.7265 O.3     1  UNL1       -0.4764
     21 C         140.6200  142.2718  167.8848 C.3     1  UNL1        0.1714
     22 C         140.3645  142.8910  169.2269 C.3     1  UNL1        0.0439
     23 C         139.6523  141.8800  170.0759 C.3     1  UNL1        0.0042
     24 C         139.4677  140.6359  169.2583 C.3     1  UNL1        0.0096
     25 C         140.0657  140.8781  167.9042 C.3     1  UNL1        0.0799
     26 C         140.1029  139.8985  166.7689 C.ar    1  UNL1        0.0603
     27 C         138.9399  139.5006  165.9092 C.ar    1  UNL1        0.0369
     28 C         139.4279  138.5010  164.9029 C.ar    1  UNL1        0.1213
     29 N         140.8925  138.2811  165.1406 N.ar    1  UNL1       -0.1679
     30 N         141.3097  139.1448  166.2939 N.ar    1  UNL1       -0.2527
     31 C         142.6911  139.2383  166.8708 C.3     1  UNL1        0.1533
@<TRIPOS>BOND
     1    14    15    1
     2    15    16   ar
     3    16    17   ar
     4    17    18   ar
     5    18    12    1
     6    12     9    1
     7     9    10    2
     8     9    11    2
     9     9     1    1
    10     1     2   ar
    11     2     3   ar
    12     3     4    1
    13     3     5   ar
    14     5    20    1
    15    21    20    1
    16    21    22    1
    17    22    23    1
    18    23    24    1
    19    24    25    1
    20    25    26    1
    21    26    27   ar
    22    27    28   ar
    23    28    29   ar
    24    29    30   ar
    25    30    31    1
    26     5     6   ar
    27     6     7   ar
    28     7     8    1
    29    18    19   ar
    30    19    15   ar
    31     7     1   ar
    32    25    21    1
    33    30    26   ar
    34    12    13    1
