@<TRIPOS>MOLECULE
*****
 38 43 0 0 0
SMALL
GASTEIGER

@<TRIPOS>ATOM
      1 C         143.9462  140.0608  156.9880 C.ar    1  UNL1        0.1042
      2 C         144.4801  139.4224  155.7400 C.ar    1  UNL1        0.0141
      3 C         145.6821  140.0029  155.0558 C.ar    1  UNL1        0.0199
      4 C         146.3502  141.2218  155.6196 C.ar    1  UNL1        0.0830
      5 N         145.8164  141.8602  156.8675 N.ar    1  UNL1       -0.2259
      6 C         144.6144  141.2797  157.5517 C.ar    1  UNL1        0.1740
      7 C         143.8120  138.2034  155.1762 C.ar    1  UNL1        0.0008
      8 C         144.2010  136.8404  155.6668 C.ar    1  UNL1        0.0000
      9 C         143.5329  135.6214  155.1030 C.ar    1  UNL1        0.0000
     10 C         142.4757  135.7656  154.0486 C.ar    1  UNL1        0.0000
     11 C         142.0867  137.1288  153.5581 C.ar    1  UNL1        0.0000
     12 C         142.7548  138.3476  154.1219 C.ar    1  UNL1        0.0000
     13 C         147.5522  141.8024  154.9353 C.ar    1  UNL1        0.0177
     14 C         148.9300  141.4473  155.4103 C.ar    1  UNL1        0.0015
     15 C         150.1320  142.0279  154.7261 C.ar    1  UNL1        0.0000
     16 C         149.9563  142.9635  153.5669 C.ar    1  UNL1        0.0000
     17 C         148.5785  143.3185  153.0920 C.ar    1  UNL1        0.0000
     18 C         147.3765  142.7380  153.7762 C.ar    1  UNL1        0.0015
     19 N         144.0805  141.9181  158.7997 N.2     1  UNL1       -0.2011
     20 C         143.1305  143.0748  158.7031 C.ar    1  UNL1        0.1981
     21 S         142.6270  143.6987  157.4353 S.2     1  UNL1       -0.0278
     22 C         141.7024  144.8202  157.8059 C.ar    1  UNL1        0.1335
     23 N         141.6345  144.8895  159.3028 N.ar    1  UNL1       -0.1567
     24 N         142.5171  143.8108  159.8572 N.ar    1  UNL1       -0.2062
     25 C         140.9737  145.7153  156.8478 C.ar    1  UNL1        0.0256
     26 C         139.8335  146.5615  157.3314 C.ar    1  UNL1        0.0021
     27 C         139.1049  147.4566  156.3734 C.ar    1  UNL1        0.0001
     28 C         139.5164  147.5055  154.9318 C.ar    1  UNL1        0.0000
     29 C         140.6565  146.6593  154.4483 C.ar    1  UNL1        0.0001
     30 C         141.3852  145.7642  155.4063 C.ar    1  UNL1        0.0021
     31 C         142.7461  143.5193  161.3107 C.ar    1  UNL1        0.0849
     32 C         141.5894  143.1566  162.1941 C.ar    1  UNL1        0.0192
     33 C         141.8183  142.8651  163.6476 C.ar    1  UNL1        0.0015
     34 C         143.2039  142.9362  164.2177 C.ar    1  UNL1        0.0001
     35 C         144.3607  143.2989  163.3342 C.ar    1  UNL1        0.0015
     36 C         144.1317  143.5904  161.8808 C.ar    1  UNL1        0.0192
     37 N         141.5422  138.8997  158.3564 N.1     1  UNL1       -0.1907
     38 C         142.7442  139.4802  157.6722 C.1     1  UNL1        0.1035
@<TRIPOS>BOND
     1    37    38    3
     2    38     1    1
     3     1     2   ar
     4     2     7    1
     5     7     8   ar
     6     8     9   ar
     7     9    10   ar
     8    10    11   ar
     9    11    12   ar
    10     2     3   ar
    11     3     4   ar
    12     4    13    1
    13    13    14   ar
    14    14    15   ar
    15    15    16   ar
    16    16    17   ar
    17    17    18   ar
    18     4     5   ar
    19     5     6   ar
    20     6    19    1
    21    19    20    2
    22    20    21   ar
    23    21    22   ar
    24    22    25    1
    25    25    26   ar
    26    26    27   ar
    27    27    28   ar
    28    28    29   ar
    29    29    30   ar
    30    22    23   ar
    31    23    24   ar
    32    24    31    1
    33    31    32   ar
    34    32    33   ar
    35    33    34   ar
    36    34    35   ar
    37    35    36   ar
    38     6     1   ar
    39    24    20   ar
    40    36    31   ar
    41    12     7   ar
    42    18    13   ar
    43    30    25   ar
@<TRIPOS>MOLECULE
*****
 38 43 0 0 0
SMALL
GASTEIGER

@<TRIPOS>ATOM
      1 C         141.4678  144.7490  159.3402 C.ar    1  UNL1        0.1042
      2 C         142.2638  143.6912  160.0454 C.ar    1  UNL1        0.0141
      3 C         143.2056  142.8190  159.2694 C.ar    1  UNL1        0.0199
      4 C         143.3515  143.0046  157.7882 C.ar    1  UNL1        0.0830
      5 N         142.5555  144.0624  157.0829 N.ar    1  UNL1       -0.2259
      6 C         141.6136  144.9345  157.8589 C.ar    1  UNL1        0.1740
      7 C         142.1179  143.5056  161.5268 C.ar    1  UNL1        0.0008
      8 C         141.1292  142.5141  162.0647 C.ar    1  UNL1        0.0000
      9 C         140.9834  142.3285  163.5461 C.ar    1  UNL1        0.0000
     10 C         141.8263  143.1344  164.4895 C.ar    1  UNL1        0.0000
     11 C         142.8150  144.1260  163.9515 C.ar    1  UNL1        0.0000
     12 C         142.9608  144.3115  162.4702 C.ar    1  UNL1        0.0000
     13 C         144.2934  142.1324  157.0122 C.ar    1  UNL1        0.0177
     14 C         143.8025  140.8506  156.4073 C.ar    1  UNL1        0.0015
     15 C         144.7444  139.9784  155.6313 C.ar    1  UNL1        0.0000
     16 C         146.1771  140.3880  155.4602 C.ar    1  UNL1        0.0000
     17 C         146.6680  141.6699  156.0651 C.ar    1  UNL1        0.0000
     18 C         145.7261  142.5420  156.8410 C.ar    1  UNL1        0.0015
     19 N         140.8176  145.9923  157.1535 N.2     1  UNL1       -0.2011
     20 C         139.5830  145.6169  156.3888 C.ar    1  UNL1        0.1981
     21 S         139.0243  144.2327  156.2409 S.2     1  UNL1       -0.0278
     22 C         137.7864  144.3200  155.3984 C.ar    1  UNL1        0.1335
     23 N         137.5801  145.7583  155.0255 N.ar    1  UNL1       -0.1567
     24 N         138.6905  146.5597  155.6376 N.ar    1  UNL1       -0.2062
     25 C         136.9089  143.1710  154.9989 C.ar    1  UNL1        0.0256
     26 C         136.5503  142.1164  156.0035 C.ar    1  UNL1        0.0021
     27 C         135.6728  140.9674  155.6040 C.ar    1  UNL1        0.0001
     28 C         135.1539  140.8729  154.1998 C.ar    1  UNL1        0.0000
     29 C         135.5124  141.9274  153.1952 C.ar    1  UNL1        0.0001
     30 C         136.3899  143.0764  153.5947 C.ar    1  UNL1        0.0021
     31 C         138.8757  148.0435  155.5192 C.ar    1  UNL1        0.0849
     32 C         138.4042  148.9482  156.6188 C.ar    1  UNL1        0.0192
     33 C         138.5895  150.4320  156.5005 C.ar    1  UNL1        0.0015
     34 C         139.2461  151.0112  155.2826 C.ar    1  UNL1        0.0001
     35 C         139.7176  150.1065  154.1829 C.ar    1  UNL1        0.0015
     36 C         139.5324  148.6227  154.3012 C.ar    1  UNL1        0.0192
     37 N         139.5840  146.4933  160.8922 N.1     1  UNL1       -0.1907
     38 C         140.5259  145.6212  160.1162 C.1     1  UNL1        0.1035
@<TRIPOS>BOND
     1    37    38    3
     2    38     1    1
     3     1     2   ar
     4     2     7    1
     5     7     8   ar
     6     8     9   ar
     7     9    10   ar
     8    10    11   ar
     9    11    12   ar
    10     2     3   ar
    11     3     4   ar
    12     4    13    1
    13    13    14   ar
    14    14    15   ar
    15    15    16   ar
    16    16    17   ar
    17    17    18   ar
    18     4     5   ar
    19     5     6   ar
    20     6    19    1
    21    19    20    2
    22    20    21   ar
    23    21    22   ar
    24    22    25    1
    25    25    26   ar
    26    26    27   ar
    27    27    28   ar
    28    28    29   ar
    29    29    30   ar
    30    22    23   ar
    31    23    24   ar
    32    24    31    1
    33    31    32   ar
    34    32    33   ar
    35    33    34   ar
    36    34    35   ar
    37    35    36   ar
    38     6     1   ar
    39    24    20   ar
    40    36    31   ar
    41    12     7   ar
    42    18    13   ar
    43    30    25   ar
@<TRIPOS>MOLECULE
*****
 38 43 0 0 0
SMALL
GASTEIGER

@<TRIPOS>ATOM
      1 C         139.5950  139.1905  158.7243 C.ar    1  UNL1        0.1042
      2 C         138.6610  140.3230  159.0325 C.ar    1  UNL1        0.0141
      3 C         137.7721  140.8756  157.9581 C.ar    1  UNL1        0.0199
      4 C         137.8172  140.2958  156.5755 C.ar    1  UNL1        0.0830
      5 N         138.7512  139.1633  156.2673 N.ar    1  UNL1       -0.2259
      6 C         139.6401  138.6106  157.3417 C.ar    1  UNL1        0.1740
      7 C         138.6159  140.9029  160.4152 C.ar    1  UNL1        0.0008
      8 C         137.6249  140.3836  161.4143 C.ar    1  UNL1        0.0000
      9 C         137.5798  140.9636  162.7970 C.ar    1  UNL1        0.0000
     10 C         138.5257  142.0628  163.1804 C.ar    1  UNL1        0.0000
     11 C         139.5167  142.5821  162.1812 C.ar    1  UNL1        0.0000
     12 C         139.5617  142.0022  160.7986 C.ar    1  UNL1        0.0000
     13 C         136.9283  140.8484  155.5010 C.ar    1  UNL1        0.0177
     14 C         137.0510  142.2863  155.0920 C.ar    1  UNL1        0.0015
     15 C         136.1620  142.8389  154.0176 C.ar    1  UNL1        0.0000
     16 C         135.1504  141.9537  153.3521 C.ar    1  UNL1        0.0000
     17 C         135.0277  140.5158  153.7611 C.ar    1  UNL1        0.0000
     18 C         135.9167  139.9631  154.8356 C.ar    1  UNL1        0.0015
     19 N         140.5741  137.4780  157.0335 N.2     1  UNL1       -0.2011
     20 C         141.9745  137.7635  156.5781 C.ar    1  UNL1        0.1981
     21 S         142.5792  139.1227  156.3856 S.2     1  UNL1       -0.0278
     22 C         143.9945  138.9392  155.9237 C.ar    1  UNL1        0.1335
     23 N         144.2644  137.4665  155.8308 N.ar    1  UNL1       -0.1567
     24 N         143.0160  136.7400  156.2352 N.ar    1  UNL1       -0.2062
     25 C         144.9688  140.0357  155.6100 C.ar    1  UNL1        0.0256
     26 C         145.4128  140.9764  156.6907 C.ar    1  UNL1        0.0021
     27 C         146.3871  142.0729  156.3769 C.ar    1  UNL1        0.0001
     28 C         146.9173  142.2287  154.9824 C.ar    1  UNL1        0.0000
     29 C         146.4732  141.2880  153.9018 C.ar    1  UNL1        0.0001
     30 C         145.4990  140.1915  154.2155 C.ar    1  UNL1        0.0021
     31 C         142.8401  135.2513  156.2875 C.ar    1  UNL1        0.0849
     32 C         141.8117  134.5867  155.4210 C.ar    1  UNL1        0.0192
     33 C         141.6357  133.0980  155.4733 C.ar    1  UNL1        0.0015
     34 C         142.4880  132.2738  156.3920 C.ar    1  UNL1        0.0001
     35 C         143.5164  132.9383  157.2586 C.ar    1  UNL1        0.0015
     36 C         143.6924  134.4270  157.2063 C.ar    1  UNL1        0.0192
     37 N         141.3728  138.0852  160.8732 N.1     1  UNL1       -0.1907
     38 C         140.4839  138.6379  159.7988 C.1     1  UNL1        0.1035
@<TRIPOS>BOND
     1    37    38    3
     2    38     1    1
     3     1     2   ar
     4     2     7    1
     5     7     8   ar
     6     8     9   ar
     7     9    10   ar
     8    10    11   ar
     9    11    12   ar
    10     2     3   ar
    11     3     4   ar
    12     4    13    1
    13    13    14   ar
    14    14    15   ar
    15    15    16   ar
    16    16    17   ar
    17    17    18   ar
    18     4     5   ar
    19     5     6   ar
    20     6    19    1
    21    19    20    2
    22    20    21   ar
    23    21    22   ar
    24    22    25    1
    25    25    26   ar
    26    26    27   ar
    27    27    28   ar
    28    28    29   ar
    29    29    30   ar
    30    22    23   ar
    31    23    24   ar
    32    24    31    1
    33    31    32   ar
    34    32    33   ar
    35    33    34   ar
    36    34    35   ar
    37    35    36   ar
    38     6     1   ar
    39    24    20   ar
    40    36    31   ar
    41    12     7   ar
    42    18    13   ar
    43    30    25   ar
@<TRIPOS>MOLECULE
*****
 38 43 0 0 0
SMALL
GASTEIGER

@<TRIPOS>ATOM
      1 C         140.1897  140.7157  158.6805 C.ar    1  UNL1        0.1042
      2 C         138.7619  140.7677  159.1373 C.ar    1  UNL1        0.0141
      3 C         137.6538  140.8357  158.1287 C.ar    1  UNL1        0.0199
      4 C         137.9734  140.8518  156.6632 C.ar    1  UNL1        0.0830
      5 N         139.4012  140.7998  156.2064 N.ar    1  UNL1       -0.2259
      6 C         140.5093  140.7317  157.2151 C.ar    1  UNL1        0.1740
      7 C         138.4423  140.7516  160.6028 C.ar    1  UNL1        0.0008
      8 C         138.1582  142.0366  161.3226 C.ar    1  UNL1        0.0000
      9 C         137.8385  142.0205  162.7881 C.ar    1  UNL1        0.0000
     10 C         137.8029  140.7194  163.5337 C.ar    1  UNL1        0.0000
     11 C         138.0870  139.4344  162.8139 C.ar    1  UNL1        0.0000
     12 C         138.4067  139.4505  161.3484 C.ar    1  UNL1        0.0000
     13 C         136.8652  140.9199  155.6546 C.ar    1  UNL1        0.0177
     14 C         135.4402  140.7587  156.0940 C.ar    1  UNL1        0.0015
     15 C         134.3320  140.8267  155.0854 C.ar    1  UNL1        0.0000
     16 C         134.6489  141.0560  153.6373 C.ar    1  UNL1        0.0000
     17 C         136.0740  141.2173  153.1979 C.ar    1  UNL1        0.0000
     18 C         137.1822  141.1492  154.2065 C.ar    1  UNL1        0.0015
     19 N         141.9372  140.6797  156.7582 N.2     1  UNL1       -0.2011
     20 C         142.5858  139.3576  156.4734 C.ar    1  UNL1        0.1981
     21 S         141.9363  138.0114  156.5997 S.2     1  UNL1       -0.0278
     22 C         142.9469  136.9713  156.2167 C.ar    1  UNL1        0.1335
     23 N         144.2211  137.6747  155.8536 N.ar    1  UNL1       -0.1567
     24 N         143.9979  139.1495  156.0123 N.ar    1  UNL1       -0.2062
     25 C         142.7227  135.4883  156.1996 C.ar    1  UNL1        0.0256
     26 C         143.5432  134.5955  157.0828 C.ar    1  UNL1        0.0021
     27 C         143.3190  133.1125  157.0658 C.ar    1  UNL1        0.0001
     28 C         142.2745  132.5222  156.1656 C.ar    1  UNL1        0.0000
     29 C         141.4541  133.4148  155.2825 C.ar    1  UNL1        0.0001
     30 C         141.6782  134.8979  155.2995 C.ar    1  UNL1        0.0021
     31 C         145.0093  140.2269  155.7550 C.ar    1  UNL1        0.0849
     32 C         145.4517  141.1229  156.8737 C.ar    1  UNL1        0.0192
     33 C         146.4631  142.2003  156.6164 C.ar    1  UNL1        0.0015
     34 C         147.0320  142.3819  155.2405 C.ar    1  UNL1        0.0001
     35 C         146.5896  141.4859  154.1217 C.ar    1  UNL1        0.0015
     36 C         145.5783  140.4085  154.3790 C.ar    1  UNL1        0.0192
     37 N         142.4060  140.5795  160.6978 N.1     1  UNL1       -0.1907
     38 C         141.2979  140.6476  159.6892 C.1     1  UNL1        0.1035
@<TRIPOS>BOND
     1    37    38    3
     2    38     1    1
     3     1     2   ar
     4     2     7    1
     5     7     8   ar
     6     8     9   ar
     7     9    10   ar
     8    10    11   ar
     9    11    12   ar
    10     2     3   ar
    11     3     4   ar
    12     4    13    1
    13    13    14   ar
    14    14    15   ar
    15    15    16   ar
    16    16    17   ar
    17    17    18   ar
    18     4     5   ar
    19     5     6   ar
    20     6    19    1
    21    19    20    2
    22    20    21   ar
    23    21    22   ar
    24    22    25    1
    25    25    26   ar
    26    26    27   ar
    27    27    28   ar
    28    28    29   ar
    29    29    30   ar
    30    22    23   ar
    31    23    24   ar
    32    24    31    1
    33    31    32   ar
    34    32    33   ar
    35    33    34   ar
    36    34    35   ar
    37    35    36   ar
    38     6     1   ar
    39    24    20   ar
    40    36    31   ar
    41    12     7   ar
    42    18    13   ar
    43    30    25   ar
@<TRIPOS>MOLECULE
*****
 38 43 0 0 0
SMALL
GASTEIGER

@<TRIPOS>ATOM
      1 C         139.3814  143.2479  157.3038 C.ar    1  UNL1        0.1042
      2 C         138.5962  143.5522  156.0625 C.ar    1  UNL1        0.0141
      3 C         138.5819  144.9454  155.5068 C.ar    1  UNL1        0.0199
      4 C         139.3528  146.0343  156.1924 C.ar    1  UNL1        0.0830
      5 N         140.1380  145.7300  157.4336 N.ar    1  UNL1       -0.2259
      6 C         140.1523  144.3368  157.9894 C.ar    1  UNL1        0.1740
      7 C         137.8253  142.4633  155.3769 C.ar    1  UNL1        0.0008
      8 C         138.4729  141.6548  154.2920 C.ar    1  UNL1        0.0000
      9 C         137.7019  140.5659  153.6064 C.ar    1  UNL1        0.0000
     10 C         136.2835  140.2856  154.0056 C.ar    1  UNL1        0.0000
     11 C         135.6359  141.0942  155.0905 C.ar    1  UNL1        0.0000
     12 C         136.4069  142.1830  155.7761 C.ar    1  UNL1        0.0000
     13 C         139.3385  147.4275  155.6366 C.ar    1  UNL1        0.0177
     14 C         138.6390  148.5252  156.3821 C.ar    1  UNL1        0.0015
     15 C         138.6247  149.9184  155.8264 C.ar    1  UNL1        0.0000
     16 C         139.3098  150.2139  154.5252 C.ar    1  UNL1        0.0000
     17 C         140.0093  149.1162  153.7797 C.ar    1  UNL1        0.0000
     18 C         140.0236  147.7230  154.3354 C.ar    1  UNL1        0.0015
     19 N         140.9375  144.0325  159.2307 N.2     1  UNL1       -0.2011
     20 C         142.3366  143.5028  159.1221 C.ar    1  UNL1        0.1981
     21 S         143.0790  143.2282  157.8480 S.2     1  UNL1       -0.0278
     22 C         144.4402  142.7103  158.2070 C.ar    1  UNL1        0.1335
     23 N         144.5391  142.6648  159.7031 N.ar    1  UNL1       -0.1567
     24 N         143.2390  143.1546  160.2686 N.ar    1  UNL1       -0.2062
     25 C         145.5140  142.3084  157.2398 C.ar    1  UNL1        0.0256
     26 C         146.9032  142.8531  157.3926 C.ar    1  UNL1        0.0021
     27 C         147.9770  142.4512  156.4255 C.ar    1  UNL1        0.0001
     28 C         147.6616  141.5046  155.3055 C.ar    1  UNL1        0.0000
     29 C         146.2724  140.9599  155.1527 C.ar    1  UNL1        0.0001
     30 C         145.1987  141.3618  156.1199 C.ar    1  UNL1        0.0021
     31 C         142.9007  143.2751  161.7250 C.ar    1  UNL1        0.0849
     32 C         141.8988  142.3445  162.3417 C.ar    1  UNL1        0.0192
     33 C         141.5605  142.4650  163.7981 C.ar    1  UNL1        0.0015
     34 C         142.2240  143.5159  164.6378 C.ar    1  UNL1        0.0001
     35 C         143.2260  144.4465  164.0211 C.ar    1  UNL1        0.0015
     36 C         143.5642  144.3261  162.5648 C.ar    1  UNL1        0.0192
     37 N         139.4101  140.4616  158.4152 N.1     1  UNL1       -0.1907
     38 C         139.3957  141.8548  157.8595 C.1     1  UNL1        0.1035
@<TRIPOS>BOND
     1    37    38    3
     2    38     1    1
     3     1     2   ar
     4     2     7    1
     5     7     8   ar
     6     8     9   ar
     7     9    10   ar
     8    10    11   ar
     9    11    12   ar
    10     2     3   ar
    11     3     4   ar
    12     4    13    1
    13    13    14   ar
    14    14    15   ar
    15    15    16   ar
    16    16    17   ar
    17    17    18   ar
    18     4     5   ar
    19     5     6   ar
    20     6    19    1
    21    19    20    2
    22    20    21   ar
    23    21    22   ar
    24    22    25    1
    25    25    26   ar
    26    26    27   ar
    27    27    28   ar
    28    28    29   ar
    29    29    30   ar
    30    22    23   ar
    31    23    24   ar
    32    24    31    1
    33    31    32   ar
    34    32    33   ar
    35    33    34   ar
    36    34    35   ar
    37    35    36   ar
    38     6     1   ar
    39    24    20   ar
    40    36    31   ar
    41    12     7   ar
    42    18    13   ar
    43    30    25   ar
@<TRIPOS>MOLECULE
*****
 38 43 0 0 0
SMALL
GASTEIGER

@<TRIPOS>ATOM
      1 C         138.6606  139.3477  155.9741 C.ar    1  UNL1        0.1042
      2 C         137.7088  140.4754  156.2426 C.ar    1  UNL1        0.0141
      3 C         137.5495  141.0067  157.6363 C.ar    1  UNL1        0.0199
      4 C         138.3421  140.4103  158.7615 C.ar    1  UNL1        0.0830
      5 N         139.2939  139.2825  158.4930 N.ar    1  UNL1       -0.2259
      6 C         139.4532  138.7512  157.0993 C.ar    1  UNL1        0.1740
      7 C         136.9162  141.0719  155.1174 C.ar    1  UNL1        0.0008
      8 C         137.4667  142.2348  154.3462 C.ar    1  UNL1        0.0000
      9 C         136.6740  142.8313  153.2210 C.ar    1  UNL1        0.0000
     10 C         135.3309  142.2649  152.8671 C.ar    1  UNL1        0.0000
     11 C         134.7804  141.1020  153.6383 C.ar    1  UNL1        0.0000
     12 C         135.5731  140.5056  154.7635 C.ar    1  UNL1        0.0000
     13 C         138.1828  140.9416  160.1551 C.ar    1  UNL1        0.0177
     14 C         138.4082  142.3983  160.4328 C.ar    1  UNL1        0.0015
     15 C         138.2489  142.9296  161.8265 C.ar    1  UNL1        0.0000
     16 C         137.8642  142.0042  162.9425 C.ar    1  UNL1        0.0000
     17 C         137.6388  140.5475  162.6649 C.ar    1  UNL1        0.0000
     18 C         137.7981  140.0162  161.2712 C.ar    1  UNL1        0.0015
     19 N         140.4051  137.6234  156.8308 N.2     1  UNL1       -0.2011
     20 C         141.8418  137.9142  156.5128 C.ar    1  UNL1        0.1981
     21 S         142.4682  139.2745  156.4281 S.2     1  UNL1       -0.0278
     22 C         143.9180  139.0968  156.0865 C.ar    1  UNL1        0.1335
     23 N         144.1875  137.6266  155.9602 N.ar    1  UNL1       -0.1567
     24 N         142.9044  136.8958  156.2236 N.ar    1  UNL1       -0.2062
     25 C         144.9219  140.1962  155.9035 C.ar    1  UNL1        0.0256
     26 C         145.2291  141.1278  157.0383 C.ar    1  UNL1        0.0021
     27 C         146.2330  142.2272  156.8553 C.ar    1  UNL1        0.0001
     28 C         146.9297  142.3949  155.5375 C.ar    1  UNL1        0.0000
     29 C         146.6224  141.4634  154.4028 C.ar    1  UNL1        0.0001
     30 C         145.6185  140.3640  154.5858 C.ar    1  UNL1        0.0021
     31 C         142.7168  135.4077  156.2017 C.ar    1  UNL1        0.0849
     32 C         141.7721  134.7853  155.2168 C.ar    1  UNL1        0.0192
     33 C         141.5845  133.2973  155.1948 C.ar    1  UNL1        0.0015
     34 C         142.3416  132.4315  156.1578 C.ar    1  UNL1        0.0001
     35 C         143.2864  133.0539  157.1427 C.ar    1  UNL1        0.0015
     36 C         143.4740  134.5420  157.1647 C.ar    1  UNL1        0.0192
     37 N         138.9792  138.2851  153.1867 N.1     1  UNL1       -0.1907
     38 C         138.8199  138.8164  154.5804 C.1     1  UNL1        0.1035
@<TRIPOS>BOND
     1    37    38    3
     2    38     1    1
     3     1     2   ar
     4     2     7    1
     5     7     8   ar
     6     8     9   ar
     7     9    10   ar
     8    10    11   ar
     9    11    12   ar
    10     2     3   ar
    11     3     4   ar
    12     4    13    1
    13    13    14   ar
    14    14    15   ar
    15    15    16   ar
    16    16    17   ar
    17    17    18   ar
    18     4     5   ar
    19     5     6   ar
    20     6    19    1
    21    19    20    2
    22    20    21   ar
    23    21    22   ar
    24    22    25    1
    25    25    26   ar
    26    26    27   ar
    27    27    28   ar
    28    28    29   ar
    29    29    30   ar
    30    22    23   ar
    31    23    24   ar
    32    24    31    1
    33    31    32   ar
    34    32    33   ar
    35    33    34   ar
    36    34    35   ar
    37    35    36   ar
    38     6     1   ar
    39    24    20   ar
    40    36    31   ar
    41    12     7   ar
    42    18    13   ar
    43    30    25   ar
@<TRIPOS>MOLECULE
*****
 38 43 0 0 0
SMALL
GASTEIGER

@<TRIPOS>ATOM
      1 C         141.0003  142.9680  159.1165 C.ar    1  UNL1        0.1042
      2 C         142.3098  143.0351  159.8449 C.ar    1  UNL1        0.0141
      3 C         143.5972  142.8962  159.0877 C.ar    1  UNL1        0.0199
      4 C         143.5751  142.6903  157.6021 C.ar    1  UNL1        0.0830
      5 N         142.2656  142.6232  156.8737 N.ar    1  UNL1       -0.2259
      6 C         140.9782  142.7620  157.6309 C.ar    1  UNL1        0.1740
      7 C         142.3320  143.2410  161.3306 C.ar    1  UNL1        0.0008
      8 C         142.2217  144.6253  161.8976 C.ar    1  UNL1        0.0000
      9 C         142.2439  144.8313  163.3832 C.ar    1  UNL1        0.0000
     10 C         142.3764  143.6529  164.3018 C.ar    1  UNL1        0.0000
     11 C         142.4867  142.2685  163.7348 C.ar    1  UNL1        0.0000
     12 C         142.4645  142.0626  162.2492 C.ar    1  UNL1        0.0000
     13 C         144.8625  142.5514  156.8449 C.ar    1  UNL1        0.0177
     14 C         144.8395  142.2823  155.3694 C.ar    1  UNL1        0.0015
     15 C         146.1269  142.1434  154.6122 C.ar    1  UNL1        0.0000
     16 C         147.4373  142.2737  155.3305 C.ar    1  UNL1        0.0000
     17 C         147.4602  142.5429  156.8059 C.ar    1  UNL1        0.0000
     18 C         146.1728  142.6817  157.5631 C.ar    1  UNL1        0.0015
     19 N         139.6686  142.6949  156.9024 N.2     1  UNL1       -0.2011
     20 C         139.1106  143.9238  156.2479 C.ar    1  UNL1        0.1981
     21 S         139.7453  145.2829  156.2379 S.2     1  UNL1       -0.0278
     22 C         138.8470  146.2084  155.4723 C.ar    1  UNL1        0.1335
     23 N         137.6570  145.4214  155.0091 N.ar    1  UNL1       -0.1567
     24 N         137.8200  144.0094  155.4884 N.ar    1  UNL1       -0.2062
     25 C         139.0950  147.6652  155.2151 C.ar    1  UNL1        0.0256
     26 C         139.9706  148.0867  154.0724 C.ar    1  UNL1        0.0021
     27 C         140.2186  149.5435  153.8152 C.ar    1  UNL1        0.0001
     28 C         139.5909  150.5789  154.7006 C.ar    1  UNL1        0.0000
     29 C         138.7153  150.1575  155.8432 C.ar    1  UNL1        0.0001
     30 C         138.4673  148.7007  156.1004 C.ar    1  UNL1        0.0021
     31 C         136.8607  142.8812  155.2501 C.ar    1  UNL1        0.0849
     32 C         136.2081  142.7222  153.9089 C.ar    1  UNL1        0.0192
     33 C         135.2488  141.5940  153.6705 C.ar    1  UNL1        0.0015
     34 C         134.9421  140.6246  154.7733 C.ar    1  UNL1        0.0001
     35 C         135.5947  140.7835  156.1146 C.ar    1  UNL1        0.0015
     36 C         136.5539  141.9117  156.3529 C.ar    1  UNL1        0.0192
     37 N         138.4255  143.2456  160.6309 N.1     1  UNL1       -0.1907
     38 C         139.7129  143.1068  159.8737 C.1     1  UNL1        0.1035
@<TRIPOS>BOND
     1    37    38    3
     2    38     1    1
     3     1     2   ar
     4     2     7    1
     5     7     8   ar
     6     8     9   ar
     7     9    10   ar
     8    10    11   ar
     9    11    12   ar
    10     2     3   ar
    11     3     4   ar
    12     4    13    1
    13    13    14   ar
    14    14    15   ar
    15    15    16   ar
    16    16    17   ar
    17    17    18   ar
    18     4     5   ar
    19     5     6   ar
    20     6    19    1
    21    19    20    2
    22    20    21   ar
    23    21    22   ar
    24    22    25    1
    25    25    26   ar
    26    26    27   ar
    27    27    28   ar
    28    28    29   ar
    29    29    30   ar
    30    22    23   ar
    31    23    24   ar
    32    24    31    1
    33    31    32   ar
    34    32    33   ar
    35    33    34   ar
    36    34    35   ar
    37    35    36   ar
    38     6     1   ar
    39    24    20   ar
    40    36    31   ar
    41    12     7   ar
    42    18    13   ar
    43    30    25   ar
@<TRIPOS>MOLECULE
*****
 38 43 0 0 0
SMALL
GASTEIGER

@<TRIPOS>ATOM
      1 C         142.6849  139.9035  157.5256 C.ar    1  UNL1        0.1042
      2 C         143.7835  140.6993  158.1656 C.ar    1  UNL1        0.0141
      3 C         144.9746  141.1193  157.3564 C.ar    1  UNL1        0.0199
      4 C         145.0671  140.7436  155.9072 C.ar    1  UNL1        0.0830
      5 N         143.9684  139.9479  155.2672 N.ar    1  UNL1       -0.2259
      6 C         142.7773  139.5278  156.0764 C.ar    1  UNL1        0.1740
      7 C         143.6911  141.0750  159.6149 C.ar    1  UNL1        0.0008
      8 C         143.1904  142.4335  160.0070 C.ar    1  UNL1        0.0000
      9 C         143.0980  142.8093  161.4563 C.ar    1  UNL1        0.0000
     10 C         143.5062  141.8265  162.5134 C.ar    1  UNL1        0.0000
     11 C         144.0069  140.4679  162.1212 C.ar    1  UNL1        0.0000
     12 C         144.0993  140.0923  160.6720 C.ar    1  UNL1        0.0000
     13 C         146.2582  141.1637  155.0980 C.ar    1  UNL1        0.0177
     14 C         146.2471  141.0010  153.6070 C.ar    1  UNL1        0.0015
     15 C         147.4382  141.4210  152.7978 C.ar    1  UNL1        0.0000
     16 C         148.6404  142.0038  153.4796 C.ar    1  UNL1        0.0000
     17 C         148.6515  142.1665  154.9707 C.ar    1  UNL1        0.0000
     18 C         147.4604  141.7465  155.7799 C.ar    1  UNL1        0.0015
     19 N         141.6786  138.7320  155.4363 N.2     1  UNL1       -0.2011
     20 C         141.7534  137.2341  155.4126 C.ar    1  UNL1        0.1981
     21 S         142.8587  136.3973  155.9856 S.2     1  UNL1       -0.0278
     22 C         142.5245  134.9560  155.7389 C.ar    1  UNL1        0.1335
     23 N         141.2126  134.9020  155.0134 N.ar    1  UNL1       -0.1567
     24 N         140.7361  136.3099  154.8118 N.ar    1  UNL1       -0.2062
     25 C         143.3561  133.7759  156.1461 C.ar    1  UNL1        0.0256
     26 C         143.5172  132.6136  155.2116 C.ar    1  UNL1        0.0021
     27 C         144.3488  131.4335  155.6188 C.ar    1  UNL1        0.0001
     28 C         145.0192  131.4157  156.9605 C.ar    1  UNL1        0.0000
     29 C         144.8581  132.5779  157.8949 C.ar    1  UNL1        0.0001
     30 C         144.0265  133.7580  157.4877 C.ar    1  UNL1        0.0021
     31 C         139.4654  136.7214  154.1292 C.ar    1  UNL1        0.0849
     32 C         138.3774  137.3943  154.9124 C.ar    1  UNL1        0.0192
     33 C         137.1067  137.8058  154.2298 C.ar    1  UNL1        0.0015
     34 C         136.9239  137.5444  152.7641 C.ar    1  UNL1        0.0001
     35 C         138.0119  136.8714  151.9809 C.ar    1  UNL1        0.0015
     36 C         139.2826  136.4599  152.6635 C.ar    1  UNL1        0.0192
     37 N         140.3026  139.0634  159.1440 N.1     1  UNL1       -0.1907
     38 C         141.4937  139.4835  158.3348 C.1     1  UNL1        0.1035
@<TRIPOS>BOND
     1    37    38    3
     2    38     1    1
     3     1     2   ar
     4     2     7    1
     5     7     8   ar
     6     8     9   ar
     7     9    10   ar
     8    10    11   ar
     9    11    12   ar
    10     2     3   ar
    11     3     4   ar
    12     4    13    1
    13    13    14   ar
    14    14    15   ar
    15    15    16   ar
    16    16    17   ar
    17    17    18   ar
    18     4     5   ar
    19     5     6   ar
    20     6    19    1
    21    19    20    2
    22    20    21   ar
    23    21    22   ar
    24    22    25    1
    25    25    26   ar
    26    26    27   ar
    27    27    28   ar
    28    28    29   ar
    29    29    30   ar
    30    22    23   ar
    31    23    24   ar
    32    24    31    1
    33    31    32   ar
    34    32    33   ar
    35    33    34   ar
    36    34    35   ar
    37    35    36   ar
    38     6     1   ar
    39    24    20   ar
    40    36    31   ar
    41    12     7   ar
    42    18    13   ar
    43    30    25   ar
@<TRIPOS>MOLECULE
*****
 38 43 0 0 0
SMALL
GASTEIGER

@<TRIPOS>ATOM
      1 C         142.5818  144.1765  157.1111 C.ar    1  UNL1        0.1042
      2 C         143.3475  143.1279  157.8622 C.ar    1  UNL1        0.0141
      3 C         143.2361  143.0434  159.3556 C.ar    1  UNL1        0.0199
      4 C         142.3590  144.0075  160.0981 C.ar    1  UNL1        0.0830
      5 N         141.5934  145.0561  159.3470 N.ar    1  UNL1       -0.2259
      6 C         141.7048  145.1406  157.8536 C.ar    1  UNL1        0.1740
      7 C         144.2246  142.1637  157.1198 C.ar    1  UNL1        0.0008
      8 C         145.6540  142.5172  156.8341 C.ar    1  UNL1        0.0000
      9 C         146.5311  141.5531  156.0917 C.ar    1  UNL1        0.0000
     10 C         145.9787  140.2354  155.6349 C.ar    1  UNL1        0.0000
     11 C         144.5492  139.8819  155.9207 C.ar    1  UNL1        0.0000
     12 C         143.6722  140.8461  156.6630 C.ar    1  UNL1        0.0000
     13 C         142.2476  143.9229  161.5915 C.ar    1  UNL1        0.0177
     14 C         143.3845  144.3820  162.4556 C.ar    1  UNL1        0.0015
     15 C         143.2731  144.2975  163.9491 C.ar    1  UNL1        0.0000
     16 C         142.0248  143.7539  164.5785 C.ar    1  UNL1        0.0000
     17 C         140.8879  143.2948  163.7144 C.ar    1  UNL1        0.0000
     18 C         140.9993  143.3793  162.2209 C.ar    1  UNL1        0.0015
     19 N         140.9391  146.1893  157.1025 N.2     1  UNL1       -0.2011
     20 C         139.6991  145.8150  156.3461 C.ar    1  UNL1        0.1981
     21 S         139.1063  144.4405  156.2497 S.2     1  UNL1       -0.0278
     22 C         137.8750  144.5254  155.3972 C.ar    1  UNL1        0.1335
     23 N         137.7068  145.9525  154.9668 N.ar    1  UNL1       -0.1567
     24 N         138.8342  146.7495  155.5532 N.ar    1  UNL1       -0.2062
     25 C         136.9707  143.3838  155.0382 C.ar    1  UNL1        0.0256
     26 C         136.6050  142.3623  156.0740 C.ar    1  UNL1        0.0021
     27 C         135.7007  141.2207  155.7150 C.ar    1  UNL1        0.0001
     28 C         135.1620  141.1006  154.3203 C.ar    1  UNL1        0.0000
     29 C         135.5276  142.1221  153.2846 C.ar    1  UNL1        0.0001
     30 C         136.4319  143.2637  153.6436 C.ar    1  UNL1        0.0021
     31 C         139.0574  148.2223  155.3776 C.ar    1  UNL1        0.0849
     32 C         138.4750  149.1919  156.3628 C.ar    1  UNL1        0.0192
     33 C         138.6982  150.6647  156.1872 C.ar    1  UNL1        0.0015
     34 C         139.5037  151.1681  155.0264 C.ar    1  UNL1        0.0001
     35 C         140.0862  150.1986  154.0411 C.ar    1  UNL1        0.0015
     36 C         139.8630  148.7257  154.2167 C.ar    1  UNL1        0.0192
     37 N         142.8046  144.3456  154.1242 N.1     1  UNL1       -0.1907
     38 C         142.6932  144.2611  155.6177 C.1     1  UNL1        0.1035
@<TRIPOS>BOND
     1    37    38    3
     2    38     1    1
     3     1     2   ar
     4     2     7    1
     5     7     8   ar
     6     8     9   ar
     7     9    10   ar
     8    10    11   ar
     9    11    12   ar
    10     2     3   ar
    11     3     4   ar
    12     4    13    1
    13    13    14   ar
    14    14    15   ar
    15    15    16   ar
    16    16    17   ar
    17    17    18   ar
    18     4     5   ar
    19     5     6   ar
    20     6    19    1
    21    19    20    2
    22    20    21   ar
    23    21    22   ar
    24    22    25    1
    25    25    26   ar
    26    26    27   ar
    27    27    28   ar
    28    28    29   ar
    29    29    30   ar
    30    22    23   ar
    31    23    24   ar
    32    24    31    1
    33    31    32   ar
    34    32    33   ar
    35    33    34   ar
    36    34    35   ar
    37    35    36   ar
    38     6     1   ar
    39    24    20   ar
    40    36    31   ar
    41    12     7   ar
    42    18    13   ar
    43    30    25   ar
