@<TRIPOS>MOLECULE
*****
 19 22 0 0 0
SMALL
GASTEIGER

@<TRIPOS>ATOM
      1 CL        137.3037  139.8849  160.4876 Cl      1  UNL1       -0.0806
      2 C         137.8567  139.4287  161.8051 C.ar    1  UNL1        0.0785
      3 C         138.2977  138.0059  161.9812 C.ar    1  UNL1        0.1135
      4 N         138.8508  137.5497  163.2988 N.ar    1  UNL1       -0.2076
      5 C         138.9629  138.5163  164.4403 C.ar    1  UNL1        0.2507
      6 O         139.4644  138.3569  165.8449 O.2     1  UNL1       -0.4056
      7 C         139.3334  139.6813  166.5370 C.ar    1  UNL1        0.2936
      8 N         138.7509  140.6592  165.5601 N.ar    1  UNL1       -0.1929
      9 C         138.5219  139.9391  164.2642 C.ar    1  UNL1        0.1400
     10 C         137.9689  140.3953  162.9466 C.ar    1  UNL1        0.0370
     11 N         139.8967  140.1135  168.6193 N.pl3   1  UNL1       -0.2637
     12 C         139.2191  140.2615  169.1810 C.3     1  UNL1        0.1123
     13 C         139.1968  140.4339  169.9688 C.3     1  UNL1        0.0939
     14 N         139.9832  140.6111  170.9187 N.3     1  UNL1       -0.2711
     15 C         140.2675  140.4364  170.1660 C.3     1  UNL1        0.0738
     16 C         140.8129  140.1524  168.9570 C.3     1  UNL1        0.0372
     17 C         141.1895  139.9830  168.2447 C.3     1  UNL1        0.0798
     18 C         142.0764  140.2083  169.4332 C.3     1  UNL1        0.0372
     19 C         141.4732  140.5224  170.7702 C.3     1  UNL1        0.0738
@<TRIPOS>BOND
     1     1     2    1
     2     2     3   ar
     3     3     4   ar
     4     4     5   ar
     5     5     6   ar
     6     6     7   ar
     7     7    11    1
     8    11    12    1
     9    12    13    1
    10    13    14    1
    11    14    15    1
    12    15    16    1
    13    16    17    1
    14    17    18    1
    15    18    19    1
    16     7     8   ar
    17     8     9   ar
    18     9    10   ar
    19    10     2   ar
    20     9     5   ar
    21    17    11    1
    22    19    14    1
@<TRIPOS>MOLECULE
*****
 19 22 0 0 0
SMALL
GASTEIGER

@<TRIPOS>ATOM
      1 CL        137.5926  139.1084  161.4464 Cl      1  UNL1       -0.0806
      2 C         138.3101  139.1664  162.7623 C.ar    1  UNL1        0.0785
      3 C         138.8294  137.9067  163.3896 C.ar    1  UNL1        0.1135
      4 N         139.5469  137.9647  164.7056 N.ar    1  UNL1       -0.2076
      5 C         139.7451  139.2823  165.3943 C.ar    1  UNL1        0.2507
      6 O         140.4084  139.6485  166.6889 O.2     1  UNL1       -0.4056
      7 C         140.2991  141.1345  166.8618 C.ar    1  UNL1        0.2936
      8 N         139.5682  141.6867  165.6740 N.ar    1  UNL1       -0.1929
      9 C         139.2258  140.5420  164.7671 C.ar    1  UNL1        0.1400
     10 C         138.5083  140.4840  163.4511 C.ar    1  UNL1        0.0370
     11 N         141.0745  142.2994  168.5594 N.pl3   1  UNL1       -0.2637
     12 C         140.4975  142.8673  168.9350 C.3     1  UNL1        0.1123
     13 C         140.5678  143.3799  169.5539 C.3     1  UNL1        0.0939
     14 N         141.4233  143.7494  170.3808 N.3     1  UNL1       -0.2711
     15 C         141.6054  143.1792  169.8156 C.3     1  UNL1        0.0738
     16 C         141.9820  142.2361  168.9164 C.3     1  UNL1        0.0372
     17 C         142.2562  141.6635  168.3922 C.3     1  UNL1        0.0798
     18 C         143.2346  142.1555  169.4171 C.3     1  UNL1        0.0372
     19 C         142.8182  143.1985  170.4114 C.3     1  UNL1        0.0738
@<TRIPOS>BOND
     1     1     2    1
     2     2     3   ar
     3     3     4   ar
     4     4     5   ar
     5     5     6   ar
     6     6     7   ar
     7     7    11    1
     8    11    12    1
     9    12    13    1
    10    13    14    1
    11    14    15    1
    12    15    16    1
    13    16    17    1
    14    17    18    1
    15    18    19    1
    16     7     8   ar
    17     8     9   ar
    18     9    10   ar
    19    10     2   ar
    20     9     5   ar
    21    17    11    1
    22    19    14    1
@<TRIPOS>MOLECULE
*****
 19 22 0 0 0
SMALL
GASTEIGER

@<TRIPOS>ATOM
      1 CL        143.8862  137.7630  161.4593 Cl      1  UNL1       -0.0806
      2 C         142.8119  138.1268  162.4410 C.ar    1  UNL1        0.0785
      3 C         141.3819  137.7790  162.1510 C.ar    1  UNL1        0.1135
      4 N         140.3077  138.1428  163.1327 N.ar    1  UNL1       -0.2076
      5 C         140.6634  138.8544  164.4043 C.ar    1  UNL1        0.2507
      6 O         139.8270  139.3374  165.5519 O.2     1  UNL1       -0.4056
      7 C         140.7401  139.9837  166.5512 C.ar    1  UNL1        0.2936
      8 N         142.1408  139.9002  166.0212 N.ar    1  UNL1       -0.1929
      9 C         142.0934  139.2022  164.6942 C.ar    1  UNL1        0.1400
     10 C         143.1676  138.8384  163.7126 C.ar    1  UNL1        0.0370
     11 N         140.1317  140.8943  168.4593 N.pl3   1  UNL1       -0.2637
     12 C         139.6913  140.3585  169.0211 C.3     1  UNL1        0.1123
     13 C         139.3828  140.4813  169.7563 C.3     1  UNL1        0.0939
     14 N         139.2815  141.3955  170.5966 N.3     1  UNL1       -0.2711
     15 C         139.6639  141.5259  169.8792 C.3     1  UNL1        0.0738
     16 C         140.3076  141.8191  168.7219 C.3     1  UNL1        0.0372
     17 C         140.7053  142.0438  168.0369 C.3     1  UNL1        0.0798
     18 C         140.5463  143.0961  169.0939 C.3     1  UNL1        0.0372
     19 C         139.8344  142.7720  170.3738 C.3     1  UNL1        0.0738
@<TRIPOS>BOND
     1     1     2    1
     2     2     3   ar
     3     3     4   ar
     4     4     5   ar
     5     5     6   ar
     6     6     7   ar
     7     7    11    1
     8    11    12    1
     9    12    13    1
    10    13    14    1
    11    14    15    1
    12    15    16    1
    13    16    17    1
    14    17    18    1
    15    18    19    1
    16     7     8   ar
    17     8     9   ar
    18     9    10   ar
    19    10     2   ar
    20     9     5   ar
    21    17    11    1
    22    19    14    1
@<TRIPOS>MOLECULE
*****
 19 22 0 0 0
SMALL
GASTEIGER

@<TRIPOS>ATOM
      1 CL        142.6328  138.5487  169.9913 Cl      1  UNL1       -0.0806
      2 C         141.9904  139.7768  169.4176 C.ar    1  UNL1        0.0785
      3 C         141.4809  140.8526  170.3302 C.ar    1  UNL1        0.1135
      4 N         140.8385  142.0807  169.7565 N.ar    1  UNL1       -0.2076
      5 C         140.7056  142.2330  168.2702 C.ar    1  UNL1        0.2507
      6 O         140.1224  143.3233  167.4211 O.2     1  UNL1       -0.4056
      7 C         140.2715  142.9213  165.9837 C.ar    1  UNL1        0.2936
      8 N         140.9468  141.5825  165.9444 N.ar    1  UNL1       -0.1929
      9 C         141.2150  141.1571  167.3576 C.ar    1  UNL1        0.1400
     10 C         141.8574  139.9290  167.9313 C.ar    1  UNL1        0.0370
     11 N         139.6149  144.0902  164.2393 N.pl3   1  UNL1       -0.2637
     12 C         138.7502  144.0204  164.0297 C.3     1  UNL1        0.1123
     13 C         138.3067  144.3534  163.4438 C.3     1  UNL1        0.0939
     14 N         138.4461  145.1323  162.4815 N.3     1  UNL1       -0.2711
     15 C         139.0878  144.9363  162.9586 C.3     1  UNL1        0.0738
     16 C         140.1922  144.6626  163.6969 C.3     1  UNL1        0.0372
     17 C         140.8887  144.5270  164.1146 C.3     1  UNL1        0.0798
     18 C         140.9825  145.4565  162.9411 C.3     1  UNL1        0.0372
     19 C         139.7612  145.7592  162.1246 C.3     1  UNL1        0.0738
@<TRIPOS>BOND
     1     1     2    1
     2     2     3   ar
     3     3     4   ar
     4     4     5   ar
     5     5     6   ar
     6     6     7   ar
     7     7    11    1
     8    11    12    1
     9    12    13    1
    10    13    14    1
    11    14    15    1
    12    15    16    1
    13    16    17    1
    14    17    18    1
    15    18    19    1
    16     7     8   ar
    17     8     9   ar
    18     9    10   ar
    19    10     2   ar
    20     9     5   ar
    21    17    11    1
    22    19    14    1
@<TRIPOS>MOLECULE
*****
 19 22 0 0 0
SMALL
GASTEIGER

@<TRIPOS>ATOM
      1 CL        142.2346  142.5055  171.2027 Cl      1  UNL1       -0.0806
      2 C         141.3497  141.7072  170.2919 C.ar    1  UNL1        0.0785
      3 C         140.4282  140.6697  170.8614 C.ar    1  UNL1        0.1135
      4 N         139.5432  139.8714  169.9506 N.ar    1  UNL1       -0.2076
      5 C         139.5798  140.1105  168.4703 C.ar    1  UNL1        0.2507
      6 O         138.8292  139.4829  167.3333 O.2     1  UNL1       -0.4056
      7 C         139.2869  140.1325  166.0610 C.ar    1  UNL1        0.2936
      8 N         140.3203  141.1616  166.4117 N.ar    1  UNL1       -0.1929
      9 C         140.5013  141.1480  167.9007 C.ar    1  UNL1        0.1400
     10 C         141.3862  141.9463  168.8115 C.ar    1  UNL1        0.0370
     11 N         138.5685  139.6590  164.0362 N.pl3   1  UNL1       -0.2637
     12 C         138.1457  140.3200  163.6109 C.3     1  UNL1        0.1123
     13 C         137.8089  140.3647  162.8792 C.3     1  UNL1        0.0939
     14 N         137.6274  139.6452  161.8784 N.3     1  UNL1       -0.2711
     15 C         138.0217  139.3525  162.5392 C.3     1  UNL1        0.0738
     16 C         138.6796  138.7979  163.5876 C.3     1  UNL1        0.0372
     17 C         139.0825  138.4186  164.1973 C.3     1  UNL1        0.0798
     18 C         138.8285  137.6108  162.9593 C.3     1  UNL1        0.0372
     19 C         138.1010  138.2241  161.7998 C.3     1  UNL1        0.0738
@<TRIPOS>BOND
     1     1     2    1
     2     2     3   ar
     3     3     4   ar
     4     4     5   ar
     5     5     6   ar
     6     6     7   ar
     7     7    11    1
     8    11    12    1
     9    12    13    1
    10    13    14    1
    11    14    15    1
    12    15    16    1
    13    16    17    1
    14    17    18    1
    15    18    19    1
    16     7     8   ar
    17     8     9   ar
    18     9    10   ar
    19    10     2   ar
    20     9     5   ar
    21    17    11    1
    22    19    14    1
@<TRIPOS>MOLECULE
*****
 19 22 0 0 0
SMALL
GASTEIGER

@<TRIPOS>ATOM
      1 CL        138.4152  142.8243  160.1006 Cl      1  UNL1       -0.0806
      2 C         138.5969  142.3813  161.5221 C.ar    1  UNL1        0.0785
      3 C         137.9829  141.0958  161.9914 C.ar    1  UNL1        0.1135
      4 N         138.1646  140.6528  163.4129 N.ar    1  UNL1       -0.2076
      5 C         138.9602  141.4954  164.3652 C.ar    1  UNL1        0.2507
      6 O         139.3071  141.3176  165.8137 O.2     1  UNL1       -0.4056
      7 C         140.1355  142.4933  166.2396 C.ar    1  UNL1        0.2936
      8 N         140.3006  143.3977  165.0545 N.ar    1  UNL1       -0.1929
      9 C         139.5742  142.7810  163.8960 C.ar    1  UNL1        0.1400
     10 C         139.3925  143.2239  162.4745 C.ar    1  UNL1        0.0370
     11 N         140.9631  142.8317  168.2498 N.pl3   1  UNL1       -0.2637
     12 C         140.4314  143.2673  168.8192 C.3     1  UNL1        0.1123
     13 C         140.5303  143.4930  169.5873 C.3     1  UNL1        0.0939
     14 N         141.3897  143.4276  170.4870 N.3     1  UNL1       -0.2711
     15 C         141.5345  143.1028  169.7444 C.3     1  UNL1        0.0738
     16 C         141.8480  142.5442  168.5488 C.3     1  UNL1        0.0372
     17 C         142.0829  142.1922  167.8426 C.3     1  UNL1        0.0798
     18 C         143.0698  142.1507  168.9715 C.3     1  UNL1        0.0372
     19 C         142.7231  142.7684  170.2936 C.3     1  UNL1        0.0738
@<TRIPOS>BOND
     1     1     2    1
     2     2     3   ar
     3     3     4   ar
     4     4     5   ar
     5     5     6   ar
     6     6     7   ar
     7     7    11    1
     8    11    12    1
     9    12    13    1
    10    13    14    1
    11    14    15    1
    12    15    16    1
    13    16    17    1
    14    17    18    1
    15    18    19    1
    16     7     8   ar
    17     8     9   ar
    18     9    10   ar
    19    10     2   ar
    20     9     5   ar
    21    17    11    1
    22    19    14    1
@<TRIPOS>MOLECULE
*****
 19 22 0 0 0
SMALL
GASTEIGER

@<TRIPOS>ATOM
      1 CL        140.7306  145.5017  160.7232 Cl      1  UNL1       -0.0806
      2 C         140.5347  144.9632  162.1094 C.ar    1  UNL1        0.0785
      3 C         139.2994  145.3163  162.8835 C.ar    1  UNL1        0.1135
      4 N         139.1034  144.7778  164.2697 N.ar    1  UNL1       -0.2076
      5 C         140.1427  143.8862  164.8818 C.ar    1  UNL1        0.2507
      6 O         140.2241  143.2100  166.2183 O.2     1  UNL1       -0.4056
      7 C         141.5098  142.4390  166.2702 C.ar    1  UNL1        0.2936
      8 N         142.2229  142.6386  164.9658 N.ar    1  UNL1       -0.1929
      9 C         141.3780  143.5331  164.1077 C.ar    1  UNL1        0.1400
     10 C         141.5740  144.0716  162.7215 C.ar    1  UNL1        0.0370
     11 N         142.2239  141.2279  167.9624 N.pl3   1  UNL1       -0.2637
     12 C         142.0644  140.3516  167.9060 C.3     1  UNL1        0.1123
     13 C         142.2347  139.7375  168.4006 C.3     1  UNL1        0.0939
     14 N         142.7852  139.5359  169.4999 N.3     1  UNL1       -0.2711
     15 C         142.7342  140.2969  169.1899 C.3     1  UNL1        0.0738
     16 C         142.6899  141.5781  168.7468 C.3     1  UNL1        0.0372
     17 C         142.6873  142.3696  168.5199 C.3     1  UNL1        0.0798
     18 C         143.3349  142.0529  169.8352 C.3     1  UNL1        0.0372
     19 C         143.3839  140.6361  170.3252 C.3     1  UNL1        0.0738
@<TRIPOS>BOND
     1     1     2    1
     2     2     3   ar
     3     3     4   ar
     4     4     5   ar
     5     5     6   ar
     6     6     7   ar
     7     7    11    1
     8    11    12    1
     9    12    13    1
    10    13    14    1
    11    14    15    1
    12    15    16    1
    13    16    17    1
    14    17    18    1
    15    18    19    1
    16     7     8   ar
    17     8     9   ar
    18     9    10   ar
    19    10     2   ar
    20     9     5   ar
    21    17    11    1
    22    19    14    1
@<TRIPOS>MOLECULE
*****
 19 22 0 0 0
SMALL
GASTEIGER

@<TRIPOS>ATOM
      1 CL        136.6409  137.4996  167.7481 Cl      1  UNL1       -0.0806
      2 C         137.7547  138.0623  166.9157 C.ar    1  UNL1        0.0785
      3 C         138.2688  137.2954  165.7336 C.ar    1  UNL1        0.1135
      4 N         139.3826  137.8582  164.9012 N.ar    1  UNL1       -0.2076
      5 C         139.9824  139.1877  165.2511 C.ar    1  UNL1        0.2507
      6 O         141.0821  139.9898  164.6209 O.2     1  UNL1       -0.4056
      7 C         141.2477  141.2525  165.4135 C.ar    1  UNL1        0.2936
      8 N         140.2504  141.2308  166.5337 N.ar    1  UNL1       -0.1929
      9 C         139.4683  139.9546  166.4332 C.ar    1  UNL1        0.1400
     10 C         138.3545  139.3919  167.2656 C.ar    1  UNL1        0.0370
     11 N         142.6988  142.8549  165.0050 N.pl3   1  UNL1       -0.2637
     12 C         143.5037  142.7524  165.3767 C.3     1  UNL1        0.1123
     13 C         144.1700  143.2069  165.3588 C.3     1  UNL1        0.0939
     14 N         144.5680  144.2792  164.8649 N.3     1  UNL1       -0.2711
     15 C         143.8003  144.0144  164.7291 C.3     1  UNL1        0.0738
     16 C         142.5229  143.6465  164.4595 C.3     1  UNL1        0.0372
     17 C         141.7428  143.4653  164.2686 C.3     1  UNL1        0.0798
     18 C         142.2892  144.7443  163.7070 C.3     1  UNL1        0.0372
     19 C         143.7018  145.1512  164.0051 C.3     1  UNL1        0.0738
@<TRIPOS>BOND
     1     1     2    1
     2     2     3   ar
     3     3     4   ar
     4     4     5   ar
     5     5     6   ar
     6     6     7   ar
     7     7    11    1
     8    11    12    1
     9    12    13    1
    10    13    14    1
    11    14    15    1
    12    15    16    1
    13    16    17    1
    14    17    18    1
    15    18    19    1
    16     7     8   ar
    17     8     9   ar
    18     9    10   ar
    19    10     2   ar
    20     9     5   ar
    21    17    11    1
    22    19    14    1
@<TRIPOS>MOLECULE
*****
 19 22 0 0 0
SMALL
GASTEIGER

@<TRIPOS>ATOM
      1 CL        144.0946  137.4847  167.1086 Cl      1  UNL1       -0.0806
      2 C         143.2480  138.7154  166.9723 C.ar    1  UNL1        0.0785
      3 C         142.7131  139.3971  168.1967 C.ar    1  UNL1        0.1135
      4 N         141.8665  140.6278  168.0604 N.ar    1  UNL1       -0.2076
      5 C         141.5549  141.1770  166.6998 C.ar    1  UNL1        0.2507
      6 O         140.7537  142.3649  166.2562 O.2     1  UNL1       -0.4056
      7 C         140.7935  142.4175  164.7576 C.ar    1  UNL1        0.2936
      8 N         141.6193  141.2620  164.2750 N.ar    1  UNL1       -0.1929
      9 C         142.0899  140.4953  165.4754 C.ar    1  UNL1        0.1400
     10 C         142.9365  139.2646  165.6117 C.ar    1  UNL1        0.0370
     11 N         139.8128  143.9247  163.4901 N.pl3   1  UNL1       -0.2637
     12 C         138.9324  143.8258  163.3815 C.3     1  UNL1        0.1123
     13 C         138.3867  144.2526  162.9682 C.3     1  UNL1        0.0939
     14 N         138.3324  145.2627  162.2410 N.3     1  UNL1       -0.2711
     15 C         139.0490  145.0152  162.5619 C.3     1  UNL1        0.0738
     16 C         140.2660  144.6717  163.0524 C.3     1  UNL1        0.0372
     17 C         141.0241  144.5030  163.3259 C.3     1  UNL1        0.0798
     18 C         140.8840  145.7077  162.4433 C.3     1  UNL1        0.0372
     19 C         139.5381  146.0876  161.9009 C.3     1  UNL1        0.0738
@<TRIPOS>BOND
     1     1     2    1
     2     2     3   ar
     3     3     4   ar
     4     4     5   ar
     5     5     6   ar
     6     6     7   ar
     7     7    11    1
     8    11    12    1
     9    12    13    1
    10    13    14    1
    11    14    15    1
    12    15    16    1
    13    16    17    1
    14    17    18    1
    15    18    19    1
    16     7     8   ar
    17     8     9   ar
    18     9    10   ar
    19    10     2   ar
    20     9     5   ar
    21    17    11    1
    22    19    14    1
