@<TRIPOS>MOLECULE
*****
 26 29 0 0 0
SMALL
GASTEIGER

@<TRIPOS>ATOM
      1 C         141.2305  141.5907  165.2457 C.2     1  UNL1        0.0783
      2 N         142.0259  140.5118  164.5724 N.2     1  UNL1       -0.2444
      3 C         142.1653  140.2294  163.1058 C.ar    1  UNL1        0.0954
      4 C         143.0597  139.0512  162.8572 C.ar    1  UNL1        0.0317
      5 C         143.3326  138.5998  161.4530 C.ar    1  UNL1        0.0593
      6 CL        144.2270  137.4216  161.2044 Cl      1  UNL1       -0.0822
      7 C         142.7111  139.3267  160.2974 C.ar    1  UNL1        0.0128
      8 C         141.8167  140.5049  160.5460 C.ar    1  UNL1        0.0170
      9 C         141.5438  140.9563  161.9502 C.ar    1  UNL1        0.0662
     10 N         140.6294  142.1451  161.9759 N.pl3   1  UNL1       -0.3113
     11 C         140.1106  142.9006  163.1633 C.ar    1  UNL1        0.0499
     12 C         139.2175  144.0312  162.7461 C.ar    1  UNL1        0.0170
     13 C         138.5919  144.9150  163.7841 C.ar    1  UNL1        0.0309
     14 C         138.8594  144.6683  165.2392 C.ar    1  UNL1        0.1403
     15 F         138.2338  145.5522  166.2772 F       1  UNL1       -0.2042
     16 C         139.7526  143.5377  165.6565 C.ar    1  UNL1        0.0324
     17 C         140.3782  142.6539  164.6185 C.ar    1  UNL1        0.0330
     18 H         140.3301  142.4728  161.0971 H       1  UNL1        0.1523
     19 C         139.1120  140.4733  169.8568 C.3     1  UNL1        0.0222
     20 C         140.2370  141.0503  169.0497 C.3     1  UNL1        0.0796
     21 C         140.1712  141.0320  167.5512 C.2     1  UNL1       -0.0132
     22 C         141.2962  141.6090  166.7441 C.2     1  UNL1       -0.0061
     23 C         142.4869  142.2043  167.4354 C.3     1  UNL1        0.0449
     24 C         142.5527  142.2226  168.9338 C.3     1  UNL1        0.0771
     25 N         141.4276  141.6456  169.7410 N.3     1  UNL1       -0.2688
     26 C         141.4933  141.6639  171.2394 C.3     1  UNL1        0.0899
@<TRIPOS>BOND
     1    20    19    1
     2    20    21    1
     3    21    22    2
     4    22     1    1
     5     1     2    2
     6     2     3    1
     7     3     4   ar
     8     4     5   ar
     9     5     6    1
    10     5     7   ar
    11     7     8   ar
    12     8     9   ar
    13     9    10    1
    14    10    11    1
    15    11    12   ar
    16    12    13   ar
    17    13    14   ar
    18    14    15    1
    19    14    16   ar
    20    16    17   ar
    21    22    23    1
    22    23    24    1
    23    24    25    1
    24    25    26    1
    25    25    20    1
    26    17     1    1
    27     9     3   ar
    28    17    11   ar
    29    10    18    1
@<TRIPOS>MOLECULE
*****
 26 29 0 0 0
SMALL
GASTEIGER

@<TRIPOS>ATOM
      1 C         141.2885  141.8306  165.1199 C.2     1  UNL1        0.0783
      2 N         140.6233  142.9772  164.4177 N.2     1  UNL1       -0.2444
      3 C         140.9792  143.6009  163.1008 C.ar    1  UNL1        0.0954
      4 C         140.0529  144.7309  162.7614 C.ar    1  UNL1        0.0317
      5 C         140.2358  145.4920  161.4820 C.ar    1  UNL1        0.0593
      6 CL        139.3095  146.6220  161.1425 Cl      1  UNL1       -0.0822
      7 C         141.3450  145.1233  160.5419 C.ar    1  UNL1        0.0128
      8 C         142.2713  143.9934  160.8813 C.ar    1  UNL1        0.0170
      9 C         142.0884  143.2322  162.1608 C.ar    1  UNL1        0.0662
     10 N         143.1155  142.1486  162.3054 N.pl3   1  UNL1       -0.3113
     11 C         143.2872  141.1662  163.4258 C.ar    1  UNL1        0.0499
     12 C         144.4454  140.2465  163.1757 C.ar    1  UNL1        0.0170
     13 C         144.7905  139.1852  164.1780 C.ar    1  UNL1        0.0309
     14 C         143.9774  139.0437  165.4305 C.ar    1  UNL1        0.1403
     15 F         144.3226  137.9825  166.4328 F       1  UNL1       -0.2042
     16 C         142.8192  139.9634  165.6807 C.ar    1  UNL1        0.0324
     17 C         142.4741  141.0247  164.6784 C.ar    1  UNL1        0.0330
     18 H         143.7626  142.0722  161.5674 H       1  UNL1        0.1523
     19 C         140.5473  142.7526  170.1795 C.3     1  UNL1        0.0222
     20 C         140.3183  141.8991  168.9674 C.3     1  UNL1        0.0796
     21 C         140.9179  142.2917  167.6497 C.2     1  UNL1       -0.0132
     22 C         140.6889  141.4382  166.4376 C.2     1  UNL1       -0.0061
     23 C         139.8604  140.1923  166.5432 C.3     1  UNL1        0.0449
     24 C         139.2607  139.7997  167.8610 C.3     1  UNL1        0.0771
     25 N         139.4897  140.6532  169.0731 N.3     1  UNL1       -0.2688
     26 C         138.8902  140.2608  170.3908 C.3     1  UNL1        0.0899
@<TRIPOS>BOND
     1    20    19    1
     2    20    21    1
     3    21    22    2
     4    22     1    1
     5     1     2    2
     6     2     3    1
     7     3     4   ar
     8     4     5   ar
     9     5     6    1
    10     5     7   ar
    11     7     8   ar
    12     8     9   ar
    13     9    10    1
    14    10    11    1
    15    11    12   ar
    16    12    13   ar
    17    13    14   ar
    18    14    15    1
    19    14    16   ar
    20    16    17   ar
    21    22    23    1
    22    23    24    1
    23    24    25    1
    24    25    26    1
    25    25    20    1
    26    17     1    1
    27     9     3   ar
    28    17    11   ar
    29    10    18    1
@<TRIPOS>MOLECULE
*****
 26 29 0 0 0
SMALL
GASTEIGER

@<TRIPOS>ATOM
      1 C         140.2907  141.5680  164.0766 C.2     1  UNL1        0.0783
      2 N         140.4750  142.3566  165.3393 N.2     1  UNL1       -0.2444
      3 C         140.2260  141.9274  166.7548 C.ar    1  UNL1        0.0954
      4 C         140.5393  143.0282  167.7244 C.ar    1  UNL1        0.0317
      5 C         140.3578  142.8051  169.1965 C.ar    1  UNL1        0.0593
      6 CL        140.6711  143.9059  170.1662 Cl      1  UNL1       -0.0822
      7 C         139.8631  141.4812  169.6991 C.ar    1  UNL1        0.0128
      8 C         139.5498  140.3805  168.7296 C.ar    1  UNL1        0.0170
      9 C         139.7313  140.6035  167.2574 C.ar    1  UNL1        0.0662
     10 N         139.3634  139.3819  166.4685 N.pl3   1  UNL1       -0.3113
     11 C         139.3992  139.1824  164.9823 C.ar    1  UNL1        0.0499
     12 C         138.9476  137.8031  164.6034 C.ar    1  UNL1        0.0170
     13 C         138.9087  137.3967  163.1600 C.ar    1  UNL1        0.0309
     14 C         139.3214  138.3696  162.0956 C.ar    1  UNL1        0.1403
     15 F         139.2825  137.9632  160.6522 F       1  UNL1       -0.2042
     16 C         139.7731  139.7490  162.4745 C.ar    1  UNL1        0.0324
     17 C         139.8120  140.1554  163.9178 C.ar    1  UNL1        0.0330
     18 H         139.0579  138.6088  166.9960 H       1  UNL1        0.1523
     19 C         143.7674  142.9083  160.4551 C.3     1  UNL1        0.0222
     20 C         142.3684  142.9573  160.9940 C.3     1  UNL1        0.0796
     21 C         142.0291  142.2381  162.2659 C.2     1  UNL1       -0.0132
     22 C         140.6301  142.2871  162.8048 C.2     1  UNL1       -0.0061
     23 C         139.5704  143.0551  162.0718 C.3     1  UNL1        0.0449
     24 C         139.9097  143.7742  160.7999 C.3     1  UNL1        0.0771
     25 N         141.3088  143.7253  160.2610 N.3     1  UNL1       -0.2688
     26 C         141.6481  144.4443  158.9891 C.3     1  UNL1        0.0899
@<TRIPOS>BOND
     1    20    19    1
     2    20    21    1
     3    21    22    2
     4    22     1    1
     5     1     2    2
     6     2     3    1
     7     3     4   ar
     8     4     5   ar
     9     5     6    1
    10     5     7   ar
    11     7     8   ar
    12     8     9   ar
    13     9    10    1
    14    10    11    1
    15    11    12   ar
    16    12    13   ar
    17    13    14   ar
    18    14    15    1
    19    14    16   ar
    20    16    17   ar
    21    22    23    1
    22    23    24    1
    23    24    25    1
    24    25    26    1
    25    25    20    1
    26    17     1    1
    27     9     3   ar
    28    17    11   ar
    29    10    18    1
@<TRIPOS>MOLECULE
*****
 26 29 0 0 0
SMALL
GASTEIGER

@<TRIPOS>ATOM
      1 C         141.3171  141.7684  164.6037 C.2     1  UNL1        0.0783
      2 N         142.1341  142.2526  165.7647 N.2     1  UNL1       -0.2444
      3 C         142.3251  141.6102  167.1067 C.ar    1  UNL1        0.0954
      4 C         143.2258  142.4290  167.9830 C.ar    1  UNL1        0.0317
      5 C         143.5477  141.9624  169.3718 C.ar    1  UNL1        0.0593
      6 CL        144.4485  142.7812  170.2482 Cl      1  UNL1       -0.0822
      7 C         142.9689  140.6769  169.8841 C.ar    1  UNL1        0.0128
      8 C         142.0681  139.8581  169.0077 C.ar    1  UNL1        0.0170
      9 C         141.7462  140.3247  167.6190 C.ar    1  UNL1        0.0662
     10 N         140.8334  139.3643  166.9159 N.pl3   1  UNL1       -0.3113
     11 C         140.2740  139.4520  165.5269 C.ar    1  UNL1        0.0499
     12 C         139.3981  138.2754  165.2134 C.ar    1  UNL1        0.0170
     13 C         138.7374  138.1686  163.8710 C.ar    1  UNL1        0.0309
     14 C         138.9526  139.2385  162.8420 C.ar    1  UNL1        0.1403
     15 F         138.2920  139.1318  161.4996 F       1  UNL1       -0.2042
     16 C         139.8286  140.4152  163.1554 C.ar    1  UNL1        0.0324
     17 C         140.4893  140.5220  164.4979 C.ar    1  UNL1        0.0330
     18 H         140.5661  138.5714  167.4347 H       1  UNL1        0.1523
     19 C         139.5575  145.9329  162.0425 C.3     1  UNL1        0.0222
     20 C         140.4497  144.7289  162.1071 C.3     1  UNL1        0.0796
     21 C         140.4372  143.8507  163.3231 C.2     1  UNL1       -0.0132
     22 C         141.3295  142.6466  163.3878 C.2     1  UNL1       -0.0061
     23 C         142.2341  142.3208  162.2365 C.3     1  UNL1        0.0449
     24 C         142.2466  143.1990  161.0205 C.3     1  UNL1        0.0771
     25 N         141.3544  144.4031  160.9558 N.3     1  UNL1       -0.2688
     26 C         141.3668  145.2813  159.7399 C.3     1  UNL1        0.0899
@<TRIPOS>BOND
     1    20    19    1
     2    20    21    1
     3    21    22    2
     4    22     1    1
     5     1     2    2
     6     2     3    1
     7     3     4   ar
     8     4     5   ar
     9     5     6    1
    10     5     7   ar
    11     7     8   ar
    12     8     9   ar
    13     9    10    1
    14    10    11    1
    15    11    12   ar
    16    12    13   ar
    17    13    14   ar
    18    14    15    1
    19    14    16   ar
    20    16    17   ar
    21    22    23    1
    22    23    24    1
    23    24    25    1
    24    25    26    1
    25    25    20    1
    26    17     1    1
    27     9     3   ar
    28    17    11   ar
    29    10    18    1
@<TRIPOS>MOLECULE
*****
 26 29 0 0 0
SMALL
GASTEIGER

@<TRIPOS>ATOM
      1 C         141.3557  141.1338  165.2726 C.2     1  UNL1        0.0783
      2 N         140.2773  140.2844  164.6678 N.2     1  UNL1       -0.2444
      3 C         139.9591  140.0690  163.2179 C.ar    1  UNL1        0.0954
      4 C         138.7952  139.1388  163.0446 C.ar    1  UNL1        0.0317
      5 C         138.3128  138.7895  161.6679 C.ar    1  UNL1        0.0593
      6 CL        137.1488  137.8594  161.4946 Cl      1  UNL1       -0.0822
      7 C         138.9943  139.3704  160.4645 C.ar    1  UNL1        0.0128
      8 C         140.1583  140.3005  160.6378 C.ar    1  UNL1        0.0170
      9 C         140.6407  140.6498  162.0145 C.ar    1  UNL1        0.0662
     10 N         141.8088  141.5895  161.9639 N.pl3   1  UNL1       -0.3113
     11 C         142.5838  142.1804  163.1041 C.ar    1  UNL1        0.0499
     12 C         143.6824  143.0764  162.6140 C.ar    1  UNL1        0.0170
     13 C         144.5793  143.7697  163.5963 C.ar    1  UNL1        0.0309
     14 C         144.3777  143.5669  165.0687 C.ar    1  UNL1        0.1403
     15 F         145.2746  144.2601  166.0510 F       1  UNL1       -0.2042
     16 C         143.2791  142.6708  165.5589 C.ar    1  UNL1        0.0324
     17 C         142.3822  141.9776  164.5766 C.ar    1  UNL1        0.0330
     18 H         142.1061  141.8532  161.0632 H       1  UNL1        0.1523
     19 C         140.3090  143.4435  169.8079 C.3     1  UNL1        0.0222
     20 C         140.8921  142.2951  169.0390 C.3     1  UNL1        0.0796
     21 C         140.8323  142.2887  167.5402 C.2     1  UNL1       -0.0132
     22 C         141.4154  141.1403  166.7713 C.2     1  UNL1       -0.0061
     23 C         142.0583  139.9984  167.5012 C.3     1  UNL1        0.0449
     24 C         142.1181  140.0048  169.0000 C.3     1  UNL1        0.0771
     25 N         141.5350  141.1532  169.7689 N.3     1  UNL1       -0.2688
     26 C         141.5948  141.1597  171.2677 C.3     1  UNL1        0.0899
@<TRIPOS>BOND
     1    20    19    1
     2    20    21    1
     3    21    22    2
     4    22     1    1
     5     1     2    2
     6     2     3    1
     7     3     4   ar
     8     4     5   ar
     9     5     6    1
    10     5     7   ar
    11     7     8   ar
    12     8     9   ar
    13     9    10    1
    14    10    11    1
    15    11    12   ar
    16    12    13   ar
    17    13    14   ar
    18    14    15    1
    19    14    16   ar
    20    16    17   ar
    21    22    23    1
    22    23    24    1
    23    24    25    1
    24    25    26    1
    25    25    20    1
    26    17     1    1
    27     9     3   ar
    28    17    11   ar
    29    10    18    1
@<TRIPOS>MOLECULE
*****
 26 29 0 0 0
SMALL
GASTEIGER

@<TRIPOS>ATOM
      1 C         140.6479  142.2629  162.3360 C.2     1  UNL1        0.0783
      2 N         140.0051  142.4161  160.9894 N.2     1  UNL1       -0.2444
      3 C         140.3254  143.4038  159.9069 C.ar    1  UNL1        0.0954
      4 C         139.4392  143.2137  158.7117 C.ar    1  UNL1        0.0317
      5 C         139.5953  144.1022  157.5134 C.ar    1  UNL1        0.0593
      6 CL        138.7091  143.9121  156.3181 Cl      1  UNL1       -0.0822
      7 C         140.6377  145.1808  157.5101 C.ar    1  UNL1        0.0128
      8 C         141.5239  145.3710  158.7053 C.ar    1  UNL1        0.0170
      9 C         141.3677  144.4825  159.9036 C.ar    1  UNL1        0.0662
     10 N         142.3472  144.8397  160.9821 N.pl3   1  UNL1       -0.3113
     11 C         142.5262  144.2067  162.3301 C.ar    1  UNL1        0.0499
     12 C         143.6249  144.8707  163.1060 C.ar    1  UNL1        0.0170
     13 C         143.9673  144.3880  164.4843 C.ar    1  UNL1        0.0309
     14 C         143.2111  143.2413  165.0868 C.ar    1  UNL1        0.1403
     15 F         143.5535  142.7586  166.4651 F       1  UNL1       -0.2042
     16 C         142.1124  142.5772  164.3109 C.ar    1  UNL1        0.0324
     17 C         141.7700  143.0599  162.9326 C.ar    1  UNL1        0.0330
     18 H         142.9526  145.5888  160.7782 H       1  UNL1        0.1523
     19 C         140.8451  137.3706  164.0753 C.3     1  UNL1        0.0222
     20 C         140.1944  138.7221  164.0698 C.3     1  UNL1        0.0796
     21 C         140.7466  139.8167  163.2056 C.2     1  UNL1       -0.0132
     22 C         140.0958  141.1683  163.2001 C.2     1  UNL1       -0.0061
     23 C         138.8929  141.4251  164.0587 C.3     1  UNL1        0.0449
     24 C         138.3407  140.3304  164.9228 C.3     1  UNL1        0.0771
     25 N         138.9915  138.9788  164.9284 N.3     1  UNL1       -0.2688
     26 C         138.4394  137.8842  165.7925 C.3     1  UNL1        0.0899
@<TRIPOS>BOND
     1    20    19    1
     2    20    21    1
     3    21    22    2
     4    22     1    1
     5     1     2    2
     6     2     3    1
     7     3     4   ar
     8     4     5   ar
     9     5     6    1
    10     5     7   ar
    11     7     8   ar
    12     8     9   ar
    13     9    10    1
    14    10    11    1
    15    11    12   ar
    16    12    13   ar
    17    13    14   ar
    18    14    15    1
    19    14    16   ar
    20    16    17   ar
    21    22    23    1
    22    23    24    1
    23    24    25    1
    24    25    26    1
    25    25    20    1
    26    17     1    1
    27     9     3   ar
    28    17    11   ar
    29    10    18    1
@<TRIPOS>MOLECULE
*****
 26 29 0 0 0
SMALL
GASTEIGER

@<TRIPOS>ATOM
      1 C         141.2311  141.0657  165.2914 C.2     1  UNL1        0.0783
      2 N         140.1505  140.2323  164.6688 N.2     1  UNL1       -0.2444
      3 C         139.9004  139.9589  163.2152 C.ar    1  UNL1        0.0954
      4 C         138.7080  139.0698  163.0220 C.ar    1  UNL1        0.0317
      5 C         138.2845  138.6731  161.6388 C.ar    1  UNL1        0.0593
      6 CL        137.0920  137.7839  161.4456 Cl      1  UNL1       -0.0822
      7 C         139.0535  139.1656  160.4488 C.ar    1  UNL1        0.0128
      8 C         140.2459  140.0548  160.6420 C.ar    1  UNL1        0.0170
      9 C         140.6694  140.4514  162.0252 C.ar    1  UNL1        0.0662
     10 N         141.8783  141.3390  161.9949 N.pl3   1  UNL1       -0.3113
     11 C         142.6168  141.9532  163.1470 C.ar    1  UNL1        0.0499
     12 C         143.7778  142.7783  162.6765 C.ar    1  UNL1        0.0170
     13 C         144.6507  143.4818  163.6731 C.ar    1  UNL1        0.0309
     14 C         144.3627  143.3602  165.1401 C.ar    1  UNL1        0.1403
     15 F         145.2356  144.0637  166.1366 F       1  UNL1       -0.2042
     16 C         143.2017  142.5351  165.6106 C.ar    1  UNL1        0.0324
     17 C         142.3288  141.8315  164.6141 C.ar    1  UNL1        0.0330
     18 H         142.2341  141.5457  161.1005 H       1  UNL1        0.1523
     19 C         142.4685  139.0513  169.9185 C.3     1  UNL1        0.0222
     20 C         141.8303  140.1363  169.1028 C.3     1  UNL1        0.0796
     21 C         141.8499  140.0585  167.6049 C.2     1  UNL1       -0.0132
     22 C         141.2116  141.1435  166.7892 C.2     1  UNL1       -0.0061
     23 C         140.5539  142.3063  167.4713 C.3     1  UNL1        0.0449
     24 C         140.5344  142.3842  168.9691 C.3     1  UNL1        0.0771
     25 N         141.1726  141.2991  169.7849 N.3     1  UNL1       -0.2688
     26 C         141.1531  141.3770  171.2827 C.3     1  UNL1        0.0899
@<TRIPOS>BOND
     1    20    19    1
     2    20    21    1
     3    21    22    2
     4    22     1    1
     5     1     2    2
     6     2     3    1
     7     3     4   ar
     8     4     5   ar
     9     5     6    1
    10     5     7   ar
    11     7     8   ar
    12     8     9   ar
    13     9    10    1
    14    10    11    1
    15    11    12   ar
    16    12    13   ar
    17    13    14   ar
    18    14    15    1
    19    14    16   ar
    20    16    17   ar
    21    22    23    1
    22    23    24    1
    23    24    25    1
    24    25    26    1
    25    25    20    1
    26    17     1    1
    27     9     3   ar
    28    17    11   ar
    29    10    18    1
@<TRIPOS>MOLECULE
*****
 26 29 0 0 0
SMALL
GASTEIGER

@<TRIPOS>ATOM
      1 C         141.7394  141.9930  165.2046 C.2     1  UNL1        0.0783
      2 N         141.3549  142.0212  166.6542 N.2     1  UNL1       -0.2444
      3 C         141.7218  141.0514  167.7382 C.ar    1  UNL1        0.0954
      4 C         141.1257  141.4506  169.0555 C.ar    1  UNL1        0.0317
      5 C         141.3715  140.6123  170.2748 C.ar    1  UNL1        0.0593
      6 CL        140.7755  141.0115  171.5922 Cl      1  UNL1       -0.0822
      7 C         142.2135  139.3748  170.1768 C.ar    1  UNL1        0.0128
      8 C         142.8096  138.9755  168.8595 C.ar    1  UNL1        0.0170
      9 C         142.5637  139.8138  167.6402 C.ar    1  UNL1        0.0662
     10 N         143.2467  139.2405  166.4341 N.pl3   1  UNL1       -0.3113
     11 C         143.2565  139.7630  165.0281 C.ar    1  UNL1        0.0499
     12 C         144.0661  138.8833  164.1221 C.ar    1  UNL1        0.0170
     13 C         144.2048  139.2286  162.6690 C.ar    1  UNL1        0.0309
     14 C         143.5340  140.4536  162.1218 C.ar    1  UNL1        0.1403
     15 F         143.6727  140.7988  160.6687 F       1  UNL1       -0.2042
     16 C         142.7244  141.3333  163.0278 C.ar    1  UNL1        0.0324
     17 C         142.5857  140.9880  164.4809 C.ar    1  UNL1        0.0330
     18 H         143.7559  138.4116  166.5853 H       1  UNL1        0.1523
     19 C         137.7837  144.2822  162.7324 C.3     1  UNL1        0.0222
     20 C         139.2294  144.2633  163.1320 C.3     1  UNL1        0.0796
     21 C         139.7615  143.1376  163.9685 C.2     1  UNL1       -0.0132
     22 C         141.2072  143.1186  164.3681 C.2     1  UNL1       -0.0061
     23 C         142.1207  144.2253  163.9312 C.3     1  UNL1        0.0449
     24 C         141.5886  145.3509  163.0947 C.3     1  UNL1        0.0771
     25 N         140.1428  145.3699  162.6951 N.3     1  UNL1       -0.2688
     26 C         139.6107  146.4955  161.8586 C.3     1  UNL1        0.0899
@<TRIPOS>BOND
     1    20    19    1
     2    20    21    1
     3    21    22    2
     4    22     1    1
     5     1     2    2
     6     2     3    1
     7     3     4   ar
     8     4     5   ar
     9     5     6    1
    10     5     7   ar
    11     7     8   ar
    12     8     9   ar
    13     9    10    1
    14    10    11    1
    15    11    12   ar
    16    12    13   ar
    17    13    14   ar
    18    14    15    1
    19    14    16   ar
    20    16    17   ar
    21    22    23    1
    22    23    24    1
    23    24    25    1
    24    25    26    1
    25    25    20    1
    26    17     1    1
    27     9     3   ar
    28    17    11   ar
    29    10    18    1
@<TRIPOS>MOLECULE
*****
 26 29 0 0 0
SMALL
GASTEIGER

@<TRIPOS>ATOM
      1 C         141.6904  139.6597  163.3703 C.2     1  UNL1        0.0783
      2 N         140.5036  139.0678  164.0711 N.2     1  UNL1       -0.2444
      3 C         139.9975  139.3503  165.4546 C.ar    1  UNL1        0.0954
      4 C         138.7753  138.5389  165.7673 C.ar    1  UNL1        0.0317
      5 C         138.1088  138.6719  167.1045 C.ar    1  UNL1        0.0593
      6 CL        136.8865  137.8605  167.4173 Cl      1  UNL1       -0.0822
      7 C         138.6645  139.6162  168.1289 C.ar    1  UNL1        0.0128
      8 C         139.8867  140.4276  167.8162 C.ar    1  UNL1        0.0170
      9 C         140.5532  140.2946  166.4790 C.ar    1  UNL1        0.0662
     10 N         141.7523  141.1896  166.3729 N.pl3   1  UNL1       -0.3113
     11 C         142.6918  141.3614  165.2163 C.ar    1  UNL1        0.0499
     12 C         143.7652  142.3622  165.5261 C.ar    1  UNL1        0.0170
     13 C         144.8111  142.6822  164.4996 C.ar    1  UNL1        0.0309
     14 C         144.7836  142.0014  163.1633 C.ar    1  UNL1        0.1403
     15 F         145.8295  142.3214  162.1368 F       1  UNL1       -0.2042
     16 C         143.7101  141.0005  162.8535 C.ar    1  UNL1        0.0324
     17 C         142.6642  140.6805  163.8800 C.ar    1  UNL1        0.0330
     18 H         141.9486  141.7366  167.1675 H       1  UNL1        0.1523
     19 C         140.8537  140.0239  158.2550 C.3     1  UNL1        0.0222
     20 C         141.5175  139.3477  159.4177 C.3     1  UNL1        0.0796
     21 C         141.2720  139.8419  160.8126 C.2     1  UNL1       -0.0132
     22 C         141.9359  139.1657  161.9755 C.2     1  UNL1       -0.0061
     23 C         142.8451  137.9954  161.7434 C.3     1  UNL1        0.0449
     24 C         143.0906  137.5013  160.3486 C.3     1  UNL1        0.0771
     25 N         142.4267  138.1775  159.1857 N.3     1  UNL1       -0.2688
     26 C         142.6722  137.6834  157.7909 C.3     1  UNL1        0.0899
@<TRIPOS>BOND
     1    20    19    1
     2    20    21    1
     3    21    22    2
     4    22     1    1
     5     1     2    2
     6     2     3    1
     7     3     4   ar
     8     4     5   ar
     9     5     6    1
    10     5     7   ar
    11     7     8   ar
    12     8     9   ar
    13     9    10    1
    14    10    11    1
    15    11    12   ar
    16    12    13   ar
    17    13    14   ar
    18    14    15    1
    19    14    16   ar
    20    16    17   ar
    21    22    23    1
    22    23    24    1
    23    24    25    1
    24    25    26    1
    25    25    20    1
    26    17     1    1
    27     9     3   ar
    28    17    11   ar
    29    10    18    1
