@<TRIPOS>MOLECULE
*****
 33 37 0 0 0
SMALL
GASTEIGER

@<TRIPOS>ATOM
      1 N         142.8035  138.4099  159.7239 N.pl3   1  UNL1       -0.3063
      2 C         143.9140  138.5513  160.7224 C.3     1  UNL1        0.0909
      3 C         143.3247  138.4091  162.0944 C.3     1  UNL1        0.0231
      4 C         141.8499  138.1798  161.9439 C.3     1  UNL1        0.0226
      5 C         140.3980  137.9595  161.6384 C.3     1  UNL1        0.0191
      6 C         139.4175  137.7640  162.7566 C.3     1  UNL1        0.0722
      7 N         139.8890  137.7888  164.1804 N.3     1  UNL1       -0.2704
      8 C         141.3409  138.0091  164.4859 C.3     1  UNL1        0.0722
      9 C         142.3213  138.2046  163.3677 C.3     1  UNL1        0.0191
     10 C         141.5278  138.1802  160.4789 C.3     1  UNL1        0.0909
     11 C         143.2251  138.6348  155.2494 C.ar    1  UNL1        0.2251
     12 C         143.4474  139.8596  156.0862 C.ar    1  UNL1        0.0590
     13 C         143.3069  139.7846  157.5777 C.ar    1  UNL1        0.0209
     14 C         142.9440  138.4848  158.2324 C.ar    1  UNL1        0.0675
     15 C         142.7217  137.2599  157.3956 C.ar    1  UNL1        0.1165
     16 N         142.8622  137.3349  155.9041 N.ar    1  UNL1       -0.2088
     17 C         142.3235  138.0906  152.8743 C.3     1  UNL1        0.2542
     18 O         143.3656  138.7098  153.7579 O.3     1  UNL1       -0.4561
     19 C         138.9085  137.5933  165.2986 C.3     1  UNL1        0.1063
     20 C         138.1713  138.7709  165.8642 C.3     1  UNL1        0.1483
     21 O         137.2975  138.5995  167.0713 O.3     1  UNL1       -0.3786
     22 H         136.8978  139.4519  167.3047 H       1  UNL1        0.2108
     23 C         138.3079  140.1199  165.2226 C.ar    1  UNL1        0.0015
     24 C         137.4933  140.4595  164.0097 C.ar    1  UNL1       -0.0020
     25 C         137.6299  141.8085  163.3682 C.ar    1  UNL1        0.0060
     26 C         138.5810  142.8178  163.9395 C.ar    1  UNL1        0.0748
     27 C         139.3956  142.4782  165.1524 C.ar    1  UNL1        0.0233
     28 C         139.2591  141.1293  165.7939 C.ar    1  UNL1       -0.0238
     29 C         140.0737  140.7897  167.0068 C.3     1  UNL1        0.0306
     30 C         140.2446  143.6682  165.4886 C.3     1  UNL1        0.2352
     31 O         139.9548  144.7433  164.4835 O.3     1  UNL1       -0.4404
     32 C         138.9266  144.2177  163.5261 C.2     1  UNL1        0.3413
     33 O         138.3459  144.9614  162.3600 O.2     1  UNL1       -0.2449
@<TRIPOS>BOND
     1    17    18    1
     2    18    11    1
     3    11    12   ar
     4    12    13   ar
     5    13    14   ar
     6    14     1    1
     7     1     2    1
     8     2     3    1
     9     3     4    1
    10     4     5    1
    11     5     6    1
    12     6     7    1
    13     7    19    1
    14    19    20    1
    15    20    21    1
    16    20    23    1
    17    23    24   ar
    18    24    25   ar
    19    25    26   ar
    20    26    27   ar
    21    27    28   ar
    22    28    29    1
    23    27    30    1
    24    30    31    1
    25    31    32    1
    26    32    33    2
    27     7     8    1
    28     8     9    1
    29     4    10    1
    30    14    15   ar
    31    15    16   ar
    32    16    11   ar
    33    10     1    1
    34     9     4    1
    35    28    23   ar
    36    32    26    1
    37    21    22    1
@<TRIPOS>MOLECULE
*****
 33 37 0 0 0
SMALL
GASTEIGER

@<TRIPOS>ATOM
      1 N         142.9348  138.4108  159.3528 N.pl3   1  UNL1       -0.3063
      2 C         142.9739  137.3983  160.4588 C.3     1  UNL1        0.0909
      3 C         143.5403  138.0646  161.6775 C.3     1  UNL1        0.0231
      4 C         143.8513  139.4891  161.3247 C.3     1  UNL1        0.0226
      5 C         144.1090  140.8807  160.8278 C.3     1  UNL1        0.0191
      6 C         144.6919  141.9103  161.7499 C.3     1  UNL1        0.0722
      7 N         145.0171  141.5482  163.1687 N.3     1  UNL1       -0.2704
      8 C         144.7594  140.1566  163.6655 C.3     1  UNL1        0.0722
      9 C         144.1766  139.1270  162.7435 C.3     1  UNL1        0.0191
     10 C         143.4772  139.7030  159.8879 C.3     1  UNL1        0.0909
     11 C         141.4514  137.6973  155.1647 C.ar    1  UNL1        0.2251
     12 C         142.0668  136.5732  155.9441 C.ar    1  UNL1        0.0590
     13 C         142.5613  136.8110  157.3401 C.ar    1  UNL1        0.0209
     14 C         142.4404  138.1730  157.9568 C.ar    1  UNL1        0.0675
     15 C         141.8249  139.2972  157.1774 C.ar    1  UNL1        0.1165
     16 N         141.3304  139.0593  155.7814 N.ar    1  UNL1       -0.2088
     17 C         141.8500  136.8022  152.7585 C.3     1  UNL1        0.2542
     18 O         140.9569  137.4595  153.7687 O.3     1  UNL1       -0.4561
     19 C         145.6000  142.5779  164.0907 C.3     1  UNL1        0.1063
     20 C         144.6962  143.4217  164.9399 C.3     1  UNL1        0.1483
     21 O         145.2052  144.0090  166.2229 O.3     1  UNL1       -0.3786
     22 H         144.4995  144.5229  166.6457 H       1  UNL1        0.2108
     23 C         143.2834  143.6783  164.5061 C.ar    1  UNL1        0.0015
     24 C         142.9922  144.7440  163.4915 C.ar    1  UNL1       -0.0020
     25 C         141.5794  145.0007  163.0577 C.ar    1  UNL1        0.0060
     26 C         140.4579  144.1915  163.6386 C.ar    1  UNL1        0.0748
     27 C         140.7491  143.1258  164.6532 C.ar    1  UNL1        0.0233
     28 C         142.1618  142.8692  165.0870 C.ar    1  UNL1       -0.0238
     29 C         142.4530  141.8035  166.1016 C.3     1  UNL1        0.0306
     30 C         139.4474  142.4931  165.0474 C.3     1  UNL1        0.2352
     31 O         138.3518  143.1678  164.2765 O.3     1  UNL1       -0.4404
     32 C         138.9763  144.2175  163.4058 C.2     1  UNL1        0.3413
     33 O         138.2472  145.1325  162.4671 O.2     1  UNL1       -0.2449
@<TRIPOS>BOND
     1    17    18    1
     2    18    11    1
     3    11    12   ar
     4    12    13   ar
     5    13    14   ar
     6    14     1    1
     7     1     2    1
     8     2     3    1
     9     3     4    1
    10     4     5    1
    11     5     6    1
    12     6     7    1
    13     7    19    1
    14    19    20    1
    15    20    21    1
    16    20    23    1
    17    23    24   ar
    18    24    25   ar
    19    25    26   ar
    20    26    27   ar
    21    27    28   ar
    22    28    29    1
    23    27    30    1
    24    30    31    1
    25    31    32    1
    26    32    33    2
    27     7     8    1
    28     8     9    1
    29     4    10    1
    30    14    15   ar
    31    15    16   ar
    32    16    11   ar
    33    10     1    1
    34     9     4    1
    35    28    23   ar
    36    32    26    1
    37    21    22    1
@<TRIPOS>MOLECULE
*****
 33 37 0 0 0
SMALL
GASTEIGER

@<TRIPOS>ATOM
      1 N         140.0329  144.4836  160.0710 N.pl3   1  UNL1       -0.3063
      2 C         139.8355  145.4973  161.1589 C.3     1  UNL1        0.0909
      3 C         139.4211  144.7679  162.4024 C.3     1  UNL1        0.0231
      4 C         139.3624  143.3034  162.0831 C.3     1  UNL1        0.0226
      5 C         139.3475  141.8775  161.6180 C.3     1  UNL1        0.0191
      6 C         138.9759  140.7813  162.5721 C.3     1  UNL1        0.0722
      7 N         138.6192  141.1111  163.9912 N.3     1  UNL1       -0.2704
      8 C         138.6341  142.5370  164.4563 C.3     1  UNL1        0.0722
      9 C         139.0056  143.6332  163.5023 C.3     1  UNL1        0.0191
     10 C         139.7405  143.1277  160.6422 C.3     1  UNL1        0.0909
     11 C         141.2828  145.3566  155.8372 C.ar    1  UNL1        0.2251
     12 C         142.0668  145.9245  156.9829 C.ar    1  UNL1        0.0590
     13 C         141.6502  145.6335  158.3942 C.ar    1  UNL1        0.0209
     14 C         140.4496  144.7746  158.6597 C.ar    1  UNL1        0.0675
     15 C         139.6655  144.2066  157.5140 C.ar    1  UNL1        0.1165
     16 N         140.0821  144.4977  156.1028 N.ar    1  UNL1       -0.2088
     17 C         141.4085  144.6563  153.3384 C.3     1  UNL1        0.2542
     18 O         141.6995  145.6476  154.4259 O.3     1  UNL1       -0.4561
     19 C         138.2476  140.0148  164.9453 C.3     1  UNL1        0.1063
     20 C         139.2985  139.3861  165.8115 C.3     1  UNL1        0.1483
     21 O         139.9630  138.1125  165.3797 O.3     1  UNL1       -0.3786
     22 H         140.6122  137.8437  166.0484 H       1  UNL1        0.2108
     23 C         139.6851  140.0311  167.1095 C.ar    1  UNL1        0.0015
     24 C         138.8505  139.8077  168.3357 C.ar    1  UNL1       -0.0020
     25 C         139.2370  140.4526  169.6336 C.ar    1  UNL1        0.0060
     26 C         140.4580  141.3208  169.7054 C.ar    1  UNL1        0.0748
     27 C         141.2926  141.5442  168.4791 C.ar    1  UNL1        0.0233
     28 C         140.9061  140.8993  167.1812 C.ar    1  UNL1       -0.0238
     29 C         141.7407  141.1226  165.9550 C.3     1  UNL1        0.0306
     30 C         142.4332  142.4440  168.8524 C.3     1  UNL1        0.2352
     31 O         142.3036  142.7769  170.3092 O.3     1  UNL1       -0.4404
     32 C         141.0828  142.0827  170.8364 C.2     1  UNL1        0.3413
     33 O         140.5759  142.1402  172.2469 O.2     1  UNL1       -0.2449
@<TRIPOS>BOND
     1    17    18    1
     2    18    11    1
     3    11    12   ar
     4    12    13   ar
     5    13    14   ar
     6    14     1    1
     7     1     2    1
     8     2     3    1
     9     3     4    1
    10     4     5    1
    11     5     6    1
    12     6     7    1
    13     7    19    1
    14    19    20    1
    15    20    21    1
    16    20    23    1
    17    23    24   ar
    18    24    25   ar
    19    25    26   ar
    20    26    27   ar
    21    27    28   ar
    22    28    29    1
    23    27    30    1
    24    30    31    1
    25    31    32    1
    26    32    33    2
    27     7     8    1
    28     8     9    1
    29     4    10    1
    30    14    15   ar
    31    15    16   ar
    32    16    11   ar
    33    10     1    1
    34     9     4    1
    35    28    23   ar
    36    32    26    1
    37    21    22    1
@<TRIPOS>MOLECULE
*****
 33 37 0 0 0
SMALL
GASTEIGER

@<TRIPOS>ATOM
      1 N         142.3803  138.4673  159.6051 N.pl3   1  UNL1       -0.3063
      2 C         143.6218  139.3089  159.5798 C.3     1  UNL1        0.0909
      3 C         144.0917  139.4846  160.9934 C.3     1  UNL1        0.0231
      4 C         143.1407  138.7515  161.8925 C.3     1  UNL1        0.0226
      5 C         142.1111  137.9782  162.6618 C.3     1  UNL1        0.0191
      6 C         142.2018  137.8895  164.1564 C.3     1  UNL1        0.0722
      7 N         143.3223  138.5740  164.8817 N.3     1  UNL1       -0.2704
      8 C         144.3519  139.3472  164.1124 C.3     1  UNL1        0.0722
      9 C         144.2612  139.4360  162.6178 C.3     1  UNL1        0.0191
     10 C         142.0831  138.1228  161.0345 C.3     1  UNL1        0.0909
     11 C         139.9711  137.1986  156.0225 C.ar    1  UNL1        0.2251
     12 C         141.4114  136.7962  156.1384 C.ar    1  UNL1        0.0590
     13 C         142.2144  137.2191  157.3326 C.ar    1  UNL1        0.0209
     14 C         141.5772  138.0444  158.4109 C.ar    1  UNL1        0.0675
     15 C         140.1369  138.4469  158.2950 C.ar    1  UNL1        0.1165
     16 N         139.3338  138.0240  157.1008 N.ar    1  UNL1       -0.2088
     17 C         138.4753  137.8066  153.9870 C.3     1  UNL1        0.2542
     18 O         139.1680  136.7758  154.8282 O.3     1  UNL1       -0.4561
     19 C         143.4130  138.4852  166.3763 C.3     1  UNL1        0.1063
     20 C         142.6793  139.4745  167.2324 C.3     1  UNL1        0.1483
     21 O         142.9973  139.5825  168.6943 O.3     1  UNL1       -0.3786
     22 H         142.4373  140.2643  169.0975 H       1  UNL1        0.2108
     23 C         141.6277  140.3560  166.6264 C.ar    1  UNL1        0.0015
     24 C         140.2013  139.8948  166.5746 C.ar    1  UNL1       -0.0020
     25 C         139.1496  140.7762  165.9688 C.ar    1  UNL1        0.0060
     26 C         139.5243  142.1188  165.4147 C.ar    1  UNL1        0.0748
     27 C         140.9508  142.5799  165.4665 C.ar    1  UNL1        0.0233
     28 C         142.0024  141.6986  166.0724 C.ar    1  UNL1       -0.0238
     29 C         143.4288  142.1597  166.1242 C.3     1  UNL1        0.0306
     30 C         141.0198  143.9436  164.8456 C.3     1  UNL1        0.2352
     31 O         139.6361  144.3253  164.4100 O.3     1  UNL1       -0.4404
     32 C         138.7119  143.1975  164.7617 C.2     1  UNL1        0.3413
     33 O         137.2345  143.1556  164.5055 O.2     1  UNL1       -0.2449
@<TRIPOS>BOND
     1    17    18    1
     2    18    11    1
     3    11    12   ar
     4    12    13   ar
     5    13    14   ar
     6    14     1    1
     7     1     2    1
     8     2     3    1
     9     3     4    1
    10     4     5    1
    11     5     6    1
    12     6     7    1
    13     7    19    1
    14    19    20    1
    15    20    21    1
    16    20    23    1
    17    23    24   ar
    18    24    25   ar
    19    25    26   ar
    20    26    27   ar
    21    27    28   ar
    22    28    29    1
    23    27    30    1
    24    30    31    1
    25    31    32    1
    26    32    33    2
    27     7     8    1
    28     8     9    1
    29     4    10    1
    30    14    15   ar
    31    15    16   ar
    32    16    11   ar
    33    10     1    1
    34     9     4    1
    35    28    23   ar
    36    32    26    1
    37    21    22    1
@<TRIPOS>MOLECULE
*****
 33 37 0 0 0
SMALL
GASTEIGER

@<TRIPOS>ATOM
      1 N         139.6898  138.7863  159.1190 N.pl3   1  UNL1       -0.3063
      2 C         138.7664  139.9644  159.0197 C.3     1  UNL1        0.0909
      3 C         138.2821  140.2914  160.4011 C.3     1  UNL1        0.0231
      4 C         138.9060  139.3156  161.3543 C.3     1  UNL1        0.0226
      5 C         139.6010  138.2760  162.1827 C.3     1  UNL1        0.0191
      6 C         139.3917  138.2372  163.6675 C.3     1  UNL1        0.0722
      7 N         138.4875  139.2380  164.3239 N.3     1  UNL1       -0.2704
      8 C         137.7925  140.2775  163.4955 C.3     1  UNL1        0.0722
      9 C         138.0018  140.3163  162.0107 C.3     1  UNL1        0.0191
     10 C         139.7760  138.3854  160.5619 C.3     1  UNL1        0.0909
     11 C         141.8258  136.8034  155.6904 C.ar    1  UNL1        0.2251
     12 C         140.3355  136.9688  155.6507 C.ar    1  UNL1        0.0590
     13 C         139.6235  137.6298  156.7935 C.ar    1  UNL1        0.0209
     14 C         140.4018  138.1253  157.9761 C.ar    1  UNL1        0.0675
     15 C         141.8921  137.9599  158.0160 C.ar    1  UNL1        0.1165
     16 N         142.6041  137.2989  156.8731 N.ar    1  UNL1       -0.2088
     17 C         142.9270  134.6968  154.6418 C.3     1  UNL1        0.2542
     18 O         142.5378  136.1424  154.5476 O.3     1  UNL1       -0.4561
     19 C         138.2782  139.1991  165.8087 C.3     1  UNL1        0.1063
     20 C         139.2459  139.8929  166.7209 C.3     1  UNL1        0.1483
     21 O         139.2428  139.5878  168.1896 O.3     1  UNL1       -0.3786
     22 H         139.9245  140.1179  168.6314 H       1  UNL1        0.2108
     23 C         140.2168  140.8918  166.1645 C.ar    1  UNL1        0.0015
     24 C         139.7810  142.3065  165.9220 C.ar    1  UNL1       -0.0020
     25 C         140.7518  143.3054  165.3656 C.ar    1  UNL1        0.0060
     26 C         142.1584  142.8896  165.0517 C.ar    1  UNL1        0.0748
     27 C         142.5942  141.4750  165.2943 C.ar    1  UNL1        0.0233
     28 C         141.6234  140.4761  165.8507 C.ar    1  UNL1       -0.0238
     29 C         142.0592  139.0614  166.0932 C.3     1  UNL1        0.0306
     30 C         144.0344  141.3581  164.8914 C.3     1  UNL1        0.2352
     31 O         144.4887  142.7005  164.3998 O.3     1  UNL1       -0.4404
     32 C         143.3293  143.6470  164.4989 C.2     1  UNL1        0.3413
     33 O         143.3390  145.0965  164.1130 O.2     1  UNL1       -0.2449
@<TRIPOS>BOND
     1    17    18    1
     2    18    11    1
     3    11    12   ar
     4    12    13   ar
     5    13    14   ar
     6    14     1    1
     7     1     2    1
     8     2     3    1
     9     3     4    1
    10     4     5    1
    11     5     6    1
    12     6     7    1
    13     7    19    1
    14    19    20    1
    15    20    21    1
    16    20    23    1
    17    23    24   ar
    18    24    25   ar
    19    25    26   ar
    20    26    27   ar
    21    27    28   ar
    22    28    29    1
    23    27    30    1
    24    30    31    1
    25    31    32    1
    26    32    33    2
    27     7     8    1
    28     8     9    1
    29     4    10    1
    30    14    15   ar
    31    15    16   ar
    32    16    11   ar
    33    10     1    1
    34     9     4    1
    35    28    23   ar
    36    32    26    1
    37    21    22    1
@<TRIPOS>MOLECULE
*****
 33 37 0 0 0
SMALL
GASTEIGER

@<TRIPOS>ATOM
      1 N         138.8793  143.8474  156.4563 N.pl3   1  UNL1       -0.3063
      2 C         138.0233  142.7417  155.9133 C.3     1  UNL1        0.0909
      3 C         137.8127  141.7382  157.0081 C.3     1  UNL1        0.0231
      4 C         138.5384  142.2237  158.2279 C.3     1  UNL1        0.0226
      5 C         139.3079  142.8332  159.3620 C.3     1  UNL1        0.0191
      6 C         139.3644  142.1374  160.6895 C.3     1  UNL1        0.0722
      7 N         138.6515  140.8319  160.8830 N.3     1  UNL1       -0.2704
      8 C         137.8820  140.2223  159.7489 C.3     1  UNL1        0.0722
      9 C         137.8254  140.9182  158.4214 C.3     1  UNL1        0.0191
     10 C         139.1976  143.5272  157.8869 C.3     1  UNL1        0.0909
     11 C         140.2513  147.4859  154.1918 C.ar    1  UNL1        0.2251
     12 C         138.9667  147.5241  154.9651 C.ar    1  UNL1        0.0590
     13 C         138.5093  146.3112  155.7200 C.ar    1  UNL1        0.0209
     14 C         139.3366  145.0602  155.7015 C.ar    1  UNL1        0.0675
     15 C         140.6214  145.0220  154.9282 C.ar    1  UNL1        0.1165
     16 N         141.0787  146.2349  154.1733 N.ar    1  UNL1       -0.2088
     17 C         139.9683  149.9953  153.5813 C.3     1  UNL1        0.2542
     18 O         140.7086  148.6988  153.4370 O.3     1  UNL1       -0.4561
     19 C         138.7080  140.1360  162.2107 C.3     1  UNL1        0.1063
     20 C         137.9278  140.6740  163.3733 C.3     1  UNL1        0.1483
     21 O         136.5924  141.3184  163.1465 O.3     1  UNL1       -0.3786
     22 H         136.2253  141.6092  163.9960 H       1  UNL1        0.2108
     23 C         138.4829  140.5676  164.7628 C.ar    1  UNL1        0.0015
     24 C         138.1685  139.3677  165.6062 C.ar    1  UNL1       -0.0020
     25 C         138.7236  139.2612  166.9956 C.ar    1  UNL1        0.0060
     26 C         139.5931  140.3547  167.5416 C.ar    1  UNL1        0.0748
     27 C         139.9075  141.5547  166.6982 C.ar    1  UNL1        0.0233
     28 C         139.3524  141.6611  165.3088 C.ar    1  UNL1       -0.0238
     29 C         139.6668  142.8610  164.4654 C.3     1  UNL1        0.0306
     30 C         140.7869  142.4674  167.5004 C.3     1  UNL1        0.2352
     31 O         141.0160  141.8317  168.8395 O.3     1  UNL1       -0.4404
     32 C         140.2781  140.5259  168.8650 C.2     1  UNL1        0.3413
     33 O         140.2333  139.5608  170.0124 O.2     1  UNL1       -0.2449
@<TRIPOS>BOND
     1    17    18    1
     2    18    11    1
     3    11    12   ar
     4    12    13   ar
     5    13    14   ar
     6    14     1    1
     7     1     2    1
     8     2     3    1
     9     3     4    1
    10     4     5    1
    11     5     6    1
    12     6     7    1
    13     7    19    1
    14    19    20    1
    15    20    21    1
    16    20    23    1
    17    23    24   ar
    18    24    25   ar
    19    25    26   ar
    20    26    27   ar
    21    27    28   ar
    22    28    29    1
    23    27    30    1
    24    30    31    1
    25    31    32    1
    26    32    33    2
    27     7     8    1
    28     8     9    1
    29     4    10    1
    30    14    15   ar
    31    15    16   ar
    32    16    11   ar
    33    10     1    1
    34     9     4    1
    35    28    23   ar
    36    32    26    1
    37    21    22    1
@<TRIPOS>MOLECULE
*****
 33 37 0 0 0
SMALL
GASTEIGER

@<TRIPOS>ATOM
      1 N         142.8159  137.9606  158.3075 N.pl3   1  UNL1       -0.3063
      2 C         143.2730  139.3433  157.9478 C.3     1  UNL1        0.0909
      3 C         143.5957  140.0704  159.2195 C.3     1  UNL1        0.0231
      4 C         143.3381  139.1371  160.3653 C.3     1  UNL1        0.0226
      5 C         143.0376  138.0974  161.4038 C.3     1  UNL1        0.0191
      6 C         143.2284  138.4127  162.8578 C.3     1  UNL1        0.0722
      7 N         143.7196  139.7677  163.2732 N.3     1  UNL1       -0.2704
      8 C         144.0201  140.8075  162.2347 C.3     1  UNL1        0.0722
      9 C         143.8293  140.4922  160.7807 C.3     1  UNL1        0.0191
     10 C         142.8561  137.8332  159.8017 C.3     1  UNL1        0.0909
     11 C         141.5469  134.7574  155.4130 C.ar    1  UNL1        0.2251
     12 C         142.7460  134.5447  156.2886 C.ar    1  UNL1        0.0590
     13 C         143.1690  135.6125  157.2535 C.ar    1  UNL1        0.0209
     14 C         142.3929  136.8929  157.3427 C.ar    1  UNL1        0.0675
     15 C         141.1937  137.1056  156.4671 C.ar    1  UNL1        0.1165
     16 N         140.7707  136.0379  155.5022 N.ar    1  UNL1       -0.2088
     17 C         141.2449  132.2439  154.8291 C.3     1  UNL1        0.2542
     18 O         141.1239  133.6896  154.4481 O.3     1  UNL1       -0.4561
     19 C         143.9104  140.0830  164.7273 C.3     1  UNL1        0.1063
     20 C         142.7330  140.4729  165.5710 C.3     1  UNL1        0.1483
     21 O         142.7164  140.1423  167.0340 O.3     1  UNL1       -0.3786
     22 H         141.8898  140.4619  167.4283 H       1  UNL1        0.2108
     23 C         141.5722  141.1933  164.9516 C.ar    1  UNL1        0.0015
     24 C         141.6606  142.6663  164.6828 C.ar    1  UNL1       -0.0020
     25 C         140.4999  143.3867  164.0635 C.ar    1  UNL1        0.0060
     26 C         139.2507  142.6341  163.7129 C.ar    1  UNL1        0.0748
     27 C         139.1622  141.1610  163.9817 C.ar    1  UNL1        0.0233
     28 C         140.3230  140.4406  164.6010 C.ar    1  UNL1       -0.0238
     29 C         140.2346  138.9675  164.8698 C.3     1  UNL1        0.0306
     30 C         137.8116  140.6881  163.5321 C.3     1  UNL1        0.2352
     31 O         137.0653  141.8689  162.9855 O.3     1  UNL1       -0.4404
     32 C         137.9547  143.0715  163.0973 C.2     1  UNL1        0.3413
     33 O         137.6089  144.4668  162.6686 O.2     1  UNL1       -0.2449
@<TRIPOS>BOND
     1    17    18    1
     2    18    11    1
     3    11    12   ar
     4    12    13   ar
     5    13    14   ar
     6    14     1    1
     7     1     2    1
     8     2     3    1
     9     3     4    1
    10     4     5    1
    11     5     6    1
    12     6     7    1
    13     7    19    1
    14    19    20    1
    15    20    21    1
    16    20    23    1
    17    23    24   ar
    18    24    25   ar
    19    25    26   ar
    20    26    27   ar
    21    27    28   ar
    22    28    29    1
    23    27    30    1
    24    30    31    1
    25    31    32    1
    26    32    33    2
    27     7     8    1
    28     8     9    1
    29     4    10    1
    30    14    15   ar
    31    15    16   ar
    32    16    11   ar
    33    10     1    1
    34     9     4    1
    35    28    23   ar
    36    32    26    1
    37    21    22    1
@<TRIPOS>MOLECULE
*****
 33 37 0 0 0
SMALL
GASTEIGER

@<TRIPOS>ATOM
      1 N         141.9782  138.7737  158.4849 N.pl3   1  UNL1       -0.3063
      2 C         143.2243  139.0585  159.2699 C.3     1  UNL1        0.0909
      3 C         142.9715  140.2699  160.1176 C.3     1  UNL1        0.0231
      4 C         141.5690  140.7338  159.8566 C.3     1  UNL1        0.0226
      5 C         140.1545  141.0777  159.4950 C.3     1  UNL1        0.0191
      6 C         139.4838  142.2589  160.1313 C.3     1  UNL1        0.0722
      7 N         140.2275  143.0961  161.1293 N.3     1  UNL1       -0.2704
      8 C         141.6421  142.7521  161.4909 C.3     1  UNL1        0.0722
      9 C         142.3128  141.5710  160.8546 C.3     1  UNL1        0.0191
     10 C         140.9552  139.8091  158.8475 C.3     1  UNL1        0.0909
     11 C         141.4089  135.4048  155.5564 C.ar    1  UNL1        0.2251
     12 C         140.3036  136.3920  155.7881 C.ar    1  UNL1        0.0590
     13 C         140.4934  137.5150  156.7643 C.ar    1  UNL1        0.0209
     14 C         141.7884  137.6507  157.5087 C.ar    1  UNL1        0.0675
     15 C         142.8938  136.6636  157.2771 C.ar    1  UNL1        0.1165
     16 N         142.7040  135.5406  156.3009 N.ar    1  UNL1       -0.2088
     17 C         141.1773  132.8637  155.0673 C.3     1  UNL1        0.2542
     18 O         141.2191  134.2819  154.5802 O.3     1  UNL1       -0.4561
     19 C         139.5567  144.2773  161.7656 C.3     1  UNL1        0.1063
     20 C         138.5624  144.0704  162.8694 C.3     1  UNL1        0.1483
     21 O         137.2298  144.7571  162.8170 O.3     1  UNL1       -0.3786
     22 H         136.7117  144.5177  163.6013 H       1  UNL1        0.2108
     23 C         138.9007  143.1768  164.0258 C.ar    1  UNL1        0.0015
     24 C         139.8420  143.6537  165.0919 C.ar    1  UNL1       -0.0020
     25 C         140.1803  142.7602  166.2482 C.ar    1  UNL1        0.0060
     26 C         139.5771  141.3898  166.3385 C.ar    1  UNL1        0.0748
     27 C         138.6358  140.9129  165.2725 C.ar    1  UNL1        0.0233
     28 C         138.2975  141.8064  164.1161 C.ar    1  UNL1       -0.0238
     29 C         137.3562  141.3295  163.0501 C.3     1  UNL1        0.0306
     30 C         138.1995  139.5224  165.6276 C.3     1  UNL1        0.2352
     31 O         138.8711  139.1399  166.9131 O.3     1  UNL1       -0.4404
     32 C         139.7226  140.2940  167.3525 C.2     1  UNL1        0.3413
     33 O         140.5706  140.3436  168.5888 O.2     1  UNL1       -0.2449
@<TRIPOS>BOND
     1    17    18    1
     2    18    11    1
     3    11    12   ar
     4    12    13   ar
     5    13    14   ar
     6    14     1    1
     7     1     2    1
     8     2     3    1
     9     3     4    1
    10     4     5    1
    11     5     6    1
    12     6     7    1
    13     7    19    1
    14    19    20    1
    15    20    21    1
    16    20    23    1
    17    23    24   ar
    18    24    25   ar
    19    25    26   ar
    20    26    27   ar
    21    27    28   ar
    22    28    29    1
    23    27    30    1
    24    30    31    1
    25    31    32    1
    26    32    33    2
    27     7     8    1
    28     8     9    1
    29     4    10    1
    30    14    15   ar
    31    15    16   ar
    32    16    11   ar
    33    10     1    1
    34     9     4    1
    35    28    23   ar
    36    32    26    1
    37    21    22    1
@<TRIPOS>MOLECULE
*****
 33 37 0 0 0
SMALL
GASTEIGER

@<TRIPOS>ATOM
      1 N         138.8002  142.2108  158.5593 N.pl3   1  UNL1       -0.3063
      2 C         138.3830  140.8157  158.1988 C.3     1  UNL1        0.0909
      3 C         138.1695  140.0521  159.4720 C.3     1  UNL1        0.0231
      4 C         138.4547  140.9750  160.6196 C.3     1  UNL1        0.0226
      5 C         138.7715  142.0082  161.6598 C.3     1  UNL1        0.0191
      6 C         138.6826  141.6585  163.1157 C.3     1  UNL1        0.0722
      7 N         138.2768  140.2755  163.5314 N.3     1  UNL1       -0.2704
      8 C         137.9600  139.2423  162.4912 C.3     1  UNL1        0.0722
      9 C         138.0489  139.5921  161.0353 C.3     1  UNL1        0.0191
     10 C         138.8445  142.3092  160.0555 C.3     1  UNL1        0.0909
     11 C         139.7517  145.5194  155.6616 C.ar    1  UNL1        0.2251
     12 C         139.0020  144.3068  155.1955 C.ar    1  UNL1        0.0590
     13 C         138.6848  143.2039  156.1614 C.ar    1  UNL1        0.0209
     14 C         139.1174  143.3136  157.5934 C.ar    1  UNL1        0.0675
     15 C         139.8672  144.5263  158.0596 C.ar    1  UNL1        0.1165
     16 N         140.1843  145.6291  157.0936 N.ar    1  UNL1       -0.2088
     17 C         139.5660  148.0119  154.9525 C.3     1  UNL1        0.2542
     18 O         140.0689  146.6223  154.6956 O.3     1  UNL1       -0.4561
     19 C         138.1879  139.9258  164.9874 C.3     1  UNL1        0.1063
     20 C         139.4137  139.4796  165.7278 C.3     1  UNL1        0.1483
     21 O         140.2892  138.4068  165.1512 O.3     1  UNL1       -0.3786
     22 H         141.0327  138.2391  165.7511 H       1  UNL1        0.2108
     23 C         139.7640  140.1062  167.0449 C.ar    1  UNL1        0.0015
     24 C         138.9379  139.8077  168.2608 C.ar    1  UNL1       -0.0020
     25 C         139.2882  140.4342  169.5779 C.ar    1  UNL1        0.0060
     26 C         140.4646  141.3593  169.6790 C.ar    1  UNL1        0.0748
     27 C         141.2907  141.6578  168.4631 C.ar    1  UNL1        0.0233
     28 C         140.9404  141.0313  167.1461 C.ar    1  UNL1       -0.0238
     29 C         141.7665  141.3298  165.9302 C.3     1  UNL1        0.0306
     30 C         142.3843  142.6021  168.8662 C.3     1  UNL1        0.2352
     31 O         142.2340  142.8872  170.3312 O.3     1  UNL1       -0.4404
     32 C         141.0476  142.1191  170.8335 C.2     1  UNL1        0.3413
     33 O         140.5343  142.1120  172.2429 O.2     1  UNL1       -0.2449
@<TRIPOS>BOND
     1    17    18    1
     2    18    11    1
     3    11    12   ar
     4    12    13   ar
     5    13    14   ar
     6    14     1    1
     7     1     2    1
     8     2     3    1
     9     3     4    1
    10     4     5    1
    11     5     6    1
    12     6     7    1
    13     7    19    1
    14    19    20    1
    15    20    21    1
    16    20    23    1
    17    23    24   ar
    18    24    25   ar
    19    25    26   ar
    20    26    27   ar
    21    27    28   ar
    22    28    29    1
    23    27    30    1
    24    30    31    1
    25    31    32    1
    26    32    33    2
    27     7     8    1
    28     8     9    1
    29     4    10    1
    30    14    15   ar
    31    15    16   ar
    32    16    11   ar
    33    10     1    1
    34     9     4    1
    35    28    23   ar
    36    32    26    1
    37    21    22    1
