@<TRIPOS>MOLECULE
*****
 26 29 0 0 0
SMALL
GASTEIGER

@<TRIPOS>ATOM
      1 C         140.2259  138.0048  164.1855 C.ar    1  UNL1        0.1386
      2 C         138.9499  138.3741  164.8823 C.ar    1  UNL1        0.0369
      3 C         138.9948  139.0964  166.1962 C.ar    1  UNL1        0.0043
      4 C         140.3157  139.4493  166.8132 C.ar    1  UNL1        0.0152
      5 C         141.5916  139.0800  166.1164 C.ar    1  UNL1        0.0043
      6 C         141.5467  138.3577  164.8025 C.ar    1  UNL1        0.0369
      7 C         140.3606  140.1716  168.1271 C.2     1  UNL1        0.0763
      8 N         139.3770  139.8276  169.2061 N.2     1  UNL1       -0.1836
      9 N         139.4219  140.5499  170.5200 N.am    1  UNL1       -0.2062
     10 C         140.4504  141.6162  170.7549 C.2     1  UNL1        0.2410
     11 O         140.4953  142.3385  172.0688 O.2     1  UNL1       -0.2734
     12 C         141.4340  141.9602  169.6759 C.3     1  UNL1        0.0841
     13 C         142.4176  142.3042  168.5970 C.3     1  UNL1        0.0160
     14 C         141.3891  141.2380  168.3620 C.3     1  UNL1        0.0509
     15 H         138.7763  140.3241  171.2281 H       1  UNL1        0.1772
     16 O         140.1810  137.2825  162.8716 O.3     1  UNL1       -0.4754
     17 C         140.1211  138.0597  161.5901 C.3     1  UNL1        0.2067
     18 C         137.6863  138.9340  161.3505 C.3     1  UNL1        0.0053
     19 C         139.1588  139.2018  161.4500 C.3     1  UNL1        0.0597
     20 C         139.6690  140.6118  161.4094 C.3     1  UNL1        0.0757
     21 N         140.0135  141.3218  162.6850 N.3     1  UNL1       -0.2738
     22 C         141.3968  141.5756  163.2069 C.3     1  UNL1        0.0721
     23 C         141.2734  142.3133  164.5072 C.3     1  UNL1        0.0187
     24 C         139.8140  142.5153  164.7889 C.3     1  UNL1        0.0174
     25 C         139.0354  141.9025  163.6627 C.3     1  UNL1        0.0576
     26 C         137.5409  141.8753  163.5365 C.3     1  UNL1        0.0173
@<TRIPOS>BOND
     1    19    18    1
     2    19    17    1
     3    17    16    1
     4    16     1    1
     5     1     2   ar
     6     2     3   ar
     7     3     4   ar
     8     4     7    1
     9     7     8    2
    10     8     9    1
    11     9    10   am
    12    10    11    2
    13    10    12    1
    14    12    13    1
    15    13    14    1
    16     4     5   ar
    17     5     6   ar
    18    19    20    1
    19    20    21    1
    20    21    22    1
    21    22    23    1
    22    23    24    1
    23    24    25    1
    24    25    26    1
    25     6     1   ar
    26    25    21    1
    27    14     7    1
    28    14    12    1
    29     9    15    1
@<TRIPOS>MOLECULE
*****
 26 29 0 0 0
SMALL
GASTEIGER

@<TRIPOS>ATOM
      1 C         142.2443  139.4153  163.8259 C.ar    1  UNL1        0.1386
      2 C         142.5491  138.5159  164.9870 C.ar    1  UNL1        0.0369
      3 C         142.2861  138.9840  166.3876 C.ar    1  UNL1        0.0043
      4 C         141.7181  140.3516  166.6271 C.ar    1  UNL1        0.0152
      5 C         141.4133  141.2509  165.4660 C.ar    1  UNL1        0.0043
      6 C         141.6764  140.7828  164.0654 C.ar    1  UNL1        0.0369
      7 C         141.4551  140.8197  168.0277 C.2     1  UNL1        0.0763
      8 N         142.4815  141.6420  168.7489 N.2     1  UNL1       -0.1836
      9 N         142.2184  142.1101  170.1495 N.am    1  UNL1       -0.2062
     10 C         140.9289  141.7559  170.8289 C.2     1  UNL1        0.2410
     11 O         140.6658  142.2240  172.2295 O.2     1  UNL1       -0.2734
     12 C         139.9024  140.9335  170.1077 C.3     1  UNL1        0.0841
     13 C         138.8760  140.1111  169.3865 C.3     1  UNL1        0.0160
     14 C         140.1655  140.4654  168.7071 C.3     1  UNL1        0.0509
     15 H         142.8921  142.6499  170.6228 H       1  UNL1        0.1772
     16 O         142.5074  138.9472  162.4253 O.3     1  UNL1       -0.4754
     17 C         141.5527  138.0015  161.7588 C.3     1  UNL1        0.2067
     18 C         139.9049  139.4438  160.3609 C.3     1  UNL1        0.0053
     19 C         140.1527  138.4427  161.4501 C.3     1  UNL1        0.0597
     20 C         139.0006  137.8828  162.2305 C.3     1  UNL1        0.0757
     21 N         138.7461  138.3514  163.6325 N.3     1  UNL1       -0.2738
     22 C         138.9907  137.5616  164.8842 C.3     1  UNL1        0.0721
     23 C         138.5981  138.4141  166.0543 C.3     1  UNL1        0.0187
     24 C         138.1109  139.7307  165.5258 C.3     1  UNL1        0.0174
     25 C         138.2024  139.6919  164.0291 C.3     1  UNL1        0.0576
     26 C         137.8177  140.7993  163.0933 C.3     1  UNL1        0.0173
@<TRIPOS>BOND
     1    19    18    1
     2    19    17    1
     3    17    16    1
     4    16     1    1
     5     1     2   ar
     6     2     3   ar
     7     3     4   ar
     8     4     7    1
     9     7     8    2
    10     8     9    1
    11     9    10   am
    12    10    11    2
    13    10    12    1
    14    12    13    1
    15    13    14    1
    16     4     5   ar
    17     5     6   ar
    18    19    20    1
    19    20    21    1
    20    21    22    1
    21    22    23    1
    22    23    24    1
    23    24    25    1
    24    25    26    1
    25     6     1   ar
    26    25    21    1
    27    14     7    1
    28    14    12    1
    29     9    15    1
@<TRIPOS>MOLECULE
*****
 26 29 0 0 0
SMALL
GASTEIGER

@<TRIPOS>ATOM
      1 C         141.0159  138.0715  164.2112 C.ar    1  UNL1        0.1386
      2 C         142.2568  138.2634  165.0318 C.ar    1  UNL1        0.0369
      3 C         142.1802  138.9677  166.3539 C.ar    1  UNL1        0.0043
      4 C         140.8626  139.4801  166.8555 C.ar    1  UNL1        0.0152
      5 C         139.6218  139.2882  166.0349 C.ar    1  UNL1        0.0043
      6 C         139.6984  138.5839  164.7127 C.ar    1  UNL1        0.0369
      7 C         140.7859  140.1844  168.1776 C.2     1  UNL1        0.0763
      8 N         139.7128  139.8202  169.1603 N.2     1  UNL1       -0.1836
      9 N         139.6361  140.5245  170.4824 N.am    1  UNL1       -0.2062
     10 C         140.6326  141.5930  170.8219 C.2     1  UNL1        0.2410
     11 O         140.5560  142.2973  172.1441 O.2     1  UNL1       -0.2734
     12 C         141.7059  141.9573  169.8392 C.3     1  UNL1        0.0841
     13 C         142.7790  142.3214  168.8566 C.3     1  UNL1        0.0160
     14 C         141.7825  141.2530  168.5171 C.3     1  UNL1        0.0509
     15 H         138.9318  140.2855  171.1274 H       1  UNL1        0.1772
     16 O         141.0926  137.3672  162.8890 O.3     1  UNL1       -0.4754
     17 C         141.4149  138.1406  161.6448 C.3     1  UNL1        0.2067
     18 C         144.0014  138.1129  161.4016 C.3     1  UNL1        0.0053
     19 C         142.7173  138.8766  161.5355 C.3     1  UNL1        0.0597
     20 C         142.7357  140.3762  161.5602 C.3     1  UNL1        0.0757
     21 N         142.6933  141.1054  162.8703 N.3     1  UNL1       -0.2738
     22 C         141.4772  141.7187  163.4991 C.3     1  UNL1        0.0721
     23 C         141.8919  142.3416  164.7991 C.3     1  UNL1        0.0187
     24 C         143.3641  142.1133  164.9739 C.3     1  UNL1        0.0174
     25 C         143.8593  141.3493  163.7818 C.3     1  UNL1        0.0576
     26 C         145.2726  140.9068  163.5432 C.3     1  UNL1        0.0173
@<TRIPOS>BOND
     1    19    18    1
     2    19    17    1
     3    17    16    1
     4    16     1    1
     5     1     2   ar
     6     2     3   ar
     7     3     4   ar
     8     4     7    1
     9     7     8    2
    10     8     9    1
    11     9    10   am
    12    10    11    2
    13    10    12    1
    14    12    13    1
    15    13    14    1
    16     4     5   ar
    17     5     6   ar
    18    19    20    1
    19    20    21    1
    20    21    22    1
    21    22    23    1
    22    23    24    1
    23    24    25    1
    24    25    26    1
    25     6     1   ar
    26    25    21    1
    27    14     7    1
    28    14    12    1
    29     9    15    1
@<TRIPOS>MOLECULE
*****
 26 29 0 0 0
SMALL
GASTEIGER

@<TRIPOS>ATOM
      1 C         138.5672  138.9704  163.9435 C.ar    1  UNL1        0.1386
      2 C         138.8936  140.4205  164.1455 C.ar    1  UNL1        0.0369
      3 C         139.2516  140.9254  165.5118 C.ar    1  UNL1        0.0043
      4 C         139.2833  139.9802  166.6762 C.ar    1  UNL1        0.0152
      5 C         138.9568  138.5302  166.4742 C.ar    1  UNL1        0.0043
      6 C         138.5988  138.0253  165.1078 C.ar    1  UNL1        0.0369
      7 C         139.6413  140.4851  168.0425 C.2     1  UNL1        0.0763
      8 N         138.9200  139.9608  169.2487 N.2     1  UNL1       -0.1836
      9 N         139.2781  140.4657  170.6150 N.am    1  UNL1       -0.2062
     10 C         140.3574  141.4949  170.7752 C.2     1  UNL1        0.2410
     11 O         140.7155  141.9998  172.1415 O.2     1  UNL1       -0.2734
     12 C         141.0788  142.0193  169.5690 C.3     1  UNL1        0.0841
     13 C         141.8000  142.5436  168.3629 C.3     1  UNL1        0.0160
     14 C         140.7207  141.5144  168.2027 C.3     1  UNL1        0.0509
     15 H         138.8047  140.1216  171.4066 H       1  UNL1        0.1772
     16 O         138.2091  138.4655  162.5772 O.3     1  UNL1       -0.4754
     17 C         139.2859  137.9911  161.6469 C.3     1  UNL1        0.2067
     18 C         140.3466  140.1040  160.5697 C.3     1  UNL1        0.0053
     19 C         140.4853  138.8534  161.3862 C.3     1  UNL1        0.0597
     20 C         141.8233  138.4650  161.9418 C.3     1  UNL1        0.0757
     21 N         142.1669  138.7890  163.3655 N.3     1  UNL1       -0.2738
     22 C         142.1535  137.8271  164.5166 C.3     1  UNL1        0.0721
     23 C         142.5625  138.5754  165.7506 C.3     1  UNL1        0.0187
     24 C         142.8287  139.9996  165.3623 C.3     1  UNL1        0.0174
     25 C         142.5842  140.1316  163.8883 C.3     1  UNL1        0.0576
     26 C         142.7312  141.3860  163.0790 C.3     1  UNL1        0.0173
@<TRIPOS>BOND
     1    19    18    1
     2    19    17    1
     3    17    16    1
     4    16     1    1
     5     1     2   ar
     6     2     3   ar
     7     3     4   ar
     8     4     7    1
     9     7     8    2
    10     8     9    1
    11     9    10   am
    12    10    11    2
    13    10    12    1
    14    12    13    1
    15    13    14    1
    16     4     5   ar
    17     5     6   ar
    18    19    20    1
    19    20    21    1
    20    21    22    1
    21    22    23    1
    22    23    24    1
    23    24    25    1
    24    25    26    1
    25     6     1   ar
    26    25    21    1
    27    14     7    1
    28    14    12    1
    29     9    15    1
@<TRIPOS>MOLECULE
*****
 26 29 0 0 0
SMALL
GASTEIGER

@<TRIPOS>ATOM
      1 C         142.6556  139.2439  163.9227 C.ar    1  UNL1        0.1386
      2 C         142.9289  138.3911  165.1261 C.ar    1  UNL1        0.0369
      3 C         142.5779  138.8920  166.4957 C.ar    1  UNL1        0.0043
      4 C         141.9536  140.2458  166.6619 C.ar    1  UNL1        0.0152
      5 C         141.6802  141.0985  165.4586 C.ar    1  UNL1        0.0043
      6 C         142.0312  140.5975  164.0890 C.ar    1  UNL1        0.0369
      7 C         141.6026  140.7468  168.0315 C.2     1  UNL1        0.0763
      8 N         140.2344  140.4974  168.5935 N.2     1  UNL1       -0.1836
      9 N         139.8834  140.9984  169.9631 N.am    1  UNL1       -0.2062
     10 C         140.9006  141.7487  170.7707 C.2     1  UNL1        0.2410
     11 O         140.5496  142.2497  172.1404 O.2     1  UNL1       -0.2734
     12 C         142.2689  141.9981  170.2088 C.3     1  UNL1        0.0841
     13 C         143.6370  142.2475  169.6468 C.3     1  UNL1        0.0160
     14 C         142.6199  141.4971  168.8392 C.3     1  UNL1        0.0509
     15 H         138.9854  140.8347  170.3320 H       1  UNL1        0.1772
     16 O         143.0066  138.7429  162.5531 O.3     1  UNL1       -0.4754
     17 C         142.0454  137.8667  161.8058 C.3     1  UNL1        0.2067
     18 C         140.7378  139.3278  160.1014 C.3     1  UNL1        0.0053
     19 C         140.7496  138.4319  161.3043 C.3     1  UNL1        0.0597
     20 C         139.4657  138.1012  162.0058 C.3     1  UNL1        0.0757
     21 N         138.9224  139.0284  163.0524 N.3     1  UNL1       -0.2738
     22 C         138.3673  140.4010  162.8119 C.3     1  UNL1        0.0721
     23 C         137.9407  140.9666  164.1342 C.3     1  UNL1        0.0187
     24 C         138.2323  139.9436  165.1917 C.3     1  UNL1        0.0174
     25 C         138.8390  138.7457  164.5232 C.3     1  UNL1        0.0576
     26 C         139.2842  137.4863  165.2056 C.3     1  UNL1        0.0173
@<TRIPOS>BOND
     1    19    18    1
     2    19    17    1
     3    17    16    1
     4    16     1    1
     5     1     2   ar
     6     2     3   ar
     7     3     4   ar
     8     4     7    1
     9     7     8    2
    10     8     9    1
    11     9    10   am
    12    10    11    2
    13    10    12    1
    14    12    13    1
    15    13    14    1
    16     4     5   ar
    17     5     6   ar
    18    19    20    1
    19    20    21    1
    20    21    22    1
    21    22    23    1
    22    23    24    1
    23    24    25    1
    24    25    26    1
    25     6     1   ar
    26    25    21    1
    27    14     7    1
    28    14    12    1
    29     9    15    1
@<TRIPOS>MOLECULE
*****
 26 29 0 0 0
SMALL
GASTEIGER

@<TRIPOS>ATOM
      1 C         144.1702  140.4350  164.1890 C.ar    1  UNL1        0.1386
      2 C         143.7640  139.3108  165.0953 C.ar    1  UNL1        0.0369
      3 C         143.1173  139.6082  166.4156 C.ar    1  UNL1        0.0043
      4 C         142.8767  141.0298  166.8296 C.ar    1  UNL1        0.0152
      5 C         143.2829  142.1539  165.9233 C.ar    1  UNL1        0.0043
      6 C         143.9297  141.8565  164.6030 C.ar    1  UNL1        0.0369
      7 C         142.2299  141.3272  168.1499 C.2     1  UNL1        0.0763
      8 N         142.9408  142.1807  169.1579 N.2     1  UNL1       -0.1836
      9 N         142.2940  142.4781  170.4783 N.am    1  UNL1       -0.2062
     10 C         140.9364  141.9221  170.7905 C.2     1  UNL1        0.2410
     11 O         140.2896  142.2195  172.1108 O.2     1  UNL1       -0.2734
     12 C         140.2254  141.0686  169.7824 C.3     1  UNL1        0.0841
     13 C         139.5145  140.2151  168.7744 C.3     1  UNL1        0.0160
     14 C         140.8722  140.7712  168.4621 C.3     1  UNL1        0.0509
     15 H         142.7606  143.0383  171.1399 H       1  UNL1        0.1772
     16 O         144.8170  140.1375  162.8686 O.3     1  UNL1       -0.4754
     17 C         143.9976  140.1501  161.6123 C.3     1  UNL1        0.2067
     18 C         143.3852  137.7366  160.8709 C.3     1  UNL1        0.0053
     19 C         142.9677  139.0851  161.3779 C.3     1  UNL1        0.0597
     20 C         141.5202  139.3685  161.6506 C.3     1  UNL1        0.0757
     21 N         140.9032  138.9386  162.9485 N.3     1  UNL1       -0.2738
     22 C         140.7772  137.5269  163.4399 C.3     1  UNL1        0.0721
     23 C         140.1000  137.5607  164.7780 C.3     1  UNL1        0.0187
     24 C         139.8076  138.9932  165.1135 C.3     1  UNL1        0.0174
     25 C         140.3041  139.8447  163.9828 C.3     1  UNL1        0.0576
     26 C         140.2166  141.3399  163.9009 C.3     1  UNL1        0.0173
@<TRIPOS>BOND
     1    19    18    1
     2    19    17    1
     3    17    16    1
     4    16     1    1
     5     1     2   ar
     6     2     3   ar
     7     3     4   ar
     8     4     7    1
     9     7     8    2
    10     8     9    1
    11     9    10   am
    12    10    11    2
    13    10    12    1
    14    12    13    1
    15    13    14    1
    16     4     5   ar
    17     5     6   ar
    18    19    20    1
    19    20    21    1
    20    21    22    1
    21    22    23    1
    22    23    24    1
    23    24    25    1
    24    25    26    1
    25     6     1   ar
    26    25    21    1
    27    14     7    1
    28    14    12    1
    29     9    15    1
@<TRIPOS>MOLECULE
*****
 26 29 0 0 0
SMALL
GASTEIGER

@<TRIPOS>ATOM
      1 C         141.5229  144.1439  163.5355 C.ar    1  UNL1        0.1386
      2 C         142.3370  142.9847  164.0290 C.ar    1  UNL1        0.0369
      3 C         141.9141  142.2420  165.2617 C.ar    1  UNL1        0.0043
      4 C         140.6771  142.6585  166.0009 C.ar    1  UNL1        0.0152
      5 C         139.8630  143.8177  165.5074 C.ar    1  UNL1        0.0043
      6 C         140.2860  144.5604  164.2747 C.ar    1  UNL1        0.0369
      7 C         140.2541  141.9158  167.2335 C.2     1  UNL1        0.0763
      8 N         139.7107  140.5223  167.1202 N.2     1  UNL1       -0.1836
      9 N         139.2878  139.7796  168.3528 N.am    1  UNL1       -0.2062
     10 C         139.4083  140.4304  169.6989 C.2     1  UNL1        0.2410
     11 O         138.9853  139.6877  170.9316 O.2     1  UNL1       -0.2734
     12 C         139.9517  141.8239  169.8124 C.3     1  UNL1        0.0841
     13 C         140.4951  143.2174  169.9257 C.3     1  UNL1        0.0160
     14 C         140.3746  142.5666  168.5797 C.3     1  UNL1        0.0509
     15 H         138.9311  138.8650  168.2784 H       1  UNL1        0.1772
     16 O         141.9459  144.8866  162.3028 O.3     1  UNL1       -0.4754
     17 C         141.3482  144.5345  160.9729 C.3     1  UNL1        0.2067
     18 C         142.6270  142.4092  160.1997 C.3     1  UNL1        0.0053
     19 C         141.3364  143.1077  160.5101 C.3     1  UNL1        0.0597
     20 C         140.0340  142.3794  160.3577 C.3     1  UNL1        0.0757
     21 N         139.1959  142.0808  161.5654 N.3     1  UNL1       -0.2738
     22 C         137.9542  142.8132  161.9799 C.3     1  UNL1        0.0721
     23 C         137.4433  142.1823  163.2413 C.3     1  UNL1        0.0187
     24 C         138.3692  141.0601  163.6064 C.3     1  UNL1        0.0174
     25 C         139.4523  140.9973  162.5706 C.3     1  UNL1        0.0576
     26 C         140.5919  140.0223  162.5446 C.3     1  UNL1        0.0173
@<TRIPOS>BOND
     1    19    18    1
     2    19    17    1
     3    17    16    1
     4    16     1    1
     5     1     2   ar
     6     2     3   ar
     7     3     4   ar
     8     4     7    1
     9     7     8    2
    10     8     9    1
    11     9    10   am
    12    10    11    2
    13    10    12    1
    14    12    13    1
    15    13    14    1
    16     4     5   ar
    17     5     6   ar
    18    19    20    1
    19    20    21    1
    20    21    22    1
    21    22    23    1
    22    23    24    1
    23    24    25    1
    24    25    26    1
    25     6     1   ar
    26    25    21    1
    27    14     7    1
    28    14    12    1
    29     9    15    1
@<TRIPOS>MOLECULE
*****
 26 29 0 0 0
SMALL
GASTEIGER

@<TRIPOS>ATOM
      1 C         144.4861  141.5171  164.0902 C.ar    1  UNL1        0.1386
      2 C         144.5552  142.8116  164.8449 C.ar    1  UNL1        0.0369
      3 C         143.8659  142.9446  166.1705 C.ar    1  UNL1        0.0043
      4 C         143.1074  141.7831  166.7413 C.ar    1  UNL1        0.0152
      5 C         143.0384  140.4887  165.9866 C.ar    1  UNL1        0.0043
      6 C         143.7277  140.3557  164.6611 C.ar    1  UNL1        0.0369
      7 C         142.4181  141.9162  168.0669 C.2     1  UNL1        0.0763
      8 N         143.0466  142.7271  169.1611 N.2     1  UNL1       -0.1836
      9 N         142.3573  142.8602  170.4866 N.am    1  UNL1       -0.2062
     10 C         141.0394  142.1822  170.7180 C.2     1  UNL1        0.2410
     11 O         140.3501  142.3153  172.0436 O.2     1  UNL1       -0.2734
     12 C         140.4108  141.3712  169.6238 C.3     1  UNL1        0.0841
     13 C         139.7823  140.5603  168.5296 C.3     1  UNL1        0.0160
     14 C         141.1001  141.2382  168.2982 C.3     1  UNL1        0.0509
     15 H         142.7698  143.3924  171.2048 H       1  UNL1        0.1772
     16 O         145.1755  141.3841  162.7646 O.3     1  UNL1       -0.4754
     17 C         145.0115  142.4514  161.7236 C.3     1  UNL1        0.2067
     18 C         143.6582  141.6185  159.6681 C.3     1  UNL1        0.0053
     19 C         143.7710  142.4934  160.8813 C.3     1  UNL1        0.0597
     20 C         142.6433  143.4102  161.2523 C.3     1  UNL1        0.0757
     21 N         141.7618  143.0804  162.4203 N.3     1  UNL1       -0.2738
     22 C         141.0592  141.7758  162.6540 C.3     1  UNL1        0.0721
     23 C         140.2913  141.8865  163.9378 C.3     1  UNL1        0.0187
     24 C         140.5193  143.2594  164.4975 C.3     1  UNL1        0.0174
     25 C         141.4281  143.9972  163.5596 C.3     1  UNL1        0.0576
     26 C         141.9172  145.4048  163.7309 C.3     1  UNL1        0.0173
@<TRIPOS>BOND
     1    19    18    1
     2    19    17    1
     3    17    16    1
     4    16     1    1
     5     1     2   ar
     6     2     3   ar
     7     3     4   ar
     8     4     7    1
     9     7     8    2
    10     8     9    1
    11     9    10   am
    12    10    11    2
    13    10    12    1
    14    12    13    1
    15    13    14    1
    16     4     5   ar
    17     5     6   ar
    18    19    20    1
    19    20    21    1
    20    21    22    1
    21    22    23    1
    22    23    24    1
    23    24    25    1
    24    25    26    1
    25     6     1   ar
    26    25    21    1
    27    14     7    1
    28    14    12    1
    29     9    15    1
@<TRIPOS>MOLECULE
*****
 26 29 0 0 0
SMALL
GASTEIGER

@<TRIPOS>ATOM
      1 C         143.4474  143.4789  164.1020 C.ar    1  UNL1        0.1386
      2 C         141.9771  143.1953  164.0134 C.ar    1  UNL1        0.0369
      3 C         141.2654  142.5573  165.1694 C.ar    1  UNL1        0.0043
      4 C         142.0240  142.2028  166.4140 C.ar    1  UNL1        0.0152
      5 C         143.4943  142.4864  166.5025 C.ar    1  UNL1        0.0043
      6 C         144.2060  143.1244  165.3465 C.ar    1  UNL1        0.0369
      7 C         141.3123  141.5648  167.5700 C.2     1  UNL1        0.0763
      8 N         141.7319  141.8796  168.9753 N.2     1  UNL1       -0.1836
      9 N         141.0202  141.2415  170.1313 N.am    1  UNL1       -0.2062
     10 C         139.8889  140.2887  169.8821 C.2     1  UNL1        0.2410
     11 O         139.1772  139.6507  171.0381 O.2     1  UNL1       -0.2734
     12 C         139.4692  139.9738  168.4767 C.3     1  UNL1        0.0841
     13 C         139.0496  139.6590  167.0715 C.3     1  UNL1        0.0160
     14 C         140.1809  140.6119  167.3207 C.3     1  UNL1        0.0509
     15 H         141.2956  141.4482  171.0536 H       1  UNL1        0.1772
     16 O         144.1591  144.1169  162.9459 O.3     1  UNL1       -0.4754
     17 C         144.7419  143.2622  161.8598 C.3     1  UNL1        0.2067
     18 C         142.7777  142.7447  160.2399 C.3     1  UNL1        0.0053
     19 C         143.8773  142.2685  161.1421 C.3     1  UNL1        0.0597
     20 C         144.1124  140.7986  161.3266 C.3     1  UNL1        0.0757
     21 N         143.8777  140.1637  162.6652 N.3     1  UNL1       -0.2738
     22 C         144.9194  139.9053  163.7133 C.3     1  UNL1        0.0721
     23 C         144.2456  139.2577  164.8866 C.3     1  UNL1        0.0187
     24 C         142.7877  139.1158  164.5637 C.3     1  UNL1        0.0174
     25 C         142.5603  139.6757  163.1909 C.3     1  UNL1        0.0576
     26 C         141.2462  139.7369  162.4702 C.3     1  UNL1        0.0173
@<TRIPOS>BOND
     1    19    18    1
     2    19    17    1
     3    17    16    1
     4    16     1    1
     5     1     2   ar
     6     2     3   ar
     7     3     4   ar
     8     4     7    1
     9     7     8    2
    10     8     9    1
    11     9    10   am
    12    10    11    2
    13    10    12    1
    14    12    13    1
    15    13    14    1
    16     4     5   ar
    17     5     6   ar
    18    19    20    1
    19    20    21    1
    20    21    22    1
    21    22    23    1
    22    23    24    1
    23    24    25    1
    24    25    26    1
    25     6     1   ar
    26    25    21    1
    27    14     7    1
    28    14    12    1
    29     9    15    1
