@<TRIPOS>MOLECULE
*****
 44 50 0 0 0
SMALL
GASTEIGER

@<TRIPOS>ATOM
      1 C         143.4089  139.1070  166.9657 C.2     1  UNL1        0.2490
      2 O         144.6172  138.2217  166.8861 O.2     1  UNL1       -0.2699
      3 N         142.6681  139.4791  165.7155 N.am    1  UNL1       -0.2761
      4 C         143.1356  138.9660  164.3858 C.3     1  UNL1        0.0940
      5 C         142.3949  139.3380  163.1358 C.3     1  UNL1        0.0257
      6 C         141.1865  140.2233  163.2153 C.3     1  UNL1        0.0235
      7 C         140.7190  140.7364  164.5450 C.3     1  UNL1        0.0257
      8 C         141.4598  140.3643  165.7951 C.3     1  UNL1        0.0940
      9 C         142.6304  141.5858  169.9655 C.ar    1  UNL1        0.0758
     10 C         142.0062  140.6467  170.9546 C.ar    1  UNL1        0.0064
     11 C         141.8495  139.1942  170.6141 C.ar    1  UNL1        0.0004
     12 C         142.3171  138.6810  169.2844 C.ar    1  UNL1        0.0045
     13 C         142.9413  139.6201  168.2953 C.ar    1  UNL1        0.0538
     14 C         143.0980  141.0726  168.6359 C.ar    1  UNL1        0.0110
     15 C         142.7870  143.0382  170.3061 C.2     1  UNL1        0.3413
     16 O         144.1468  143.5956  170.6071 O.2     1  UNL1       -0.2449
     17 C         140.3656  143.5882  169.5417 C.3     1  UNL1        0.2560
     18 O         141.5840  143.9332  170.3457 O.3     1  UNL1       -0.4413
     19 C         141.2410  139.9894  161.7346 C.ar    1  UNL1       -0.0226
     20 C         140.8197  138.6658  161.1684 C.ar    1  UNL1       -0.0043
     21 C         140.8742  138.4318  159.6877 C.ar    1  UNL1       -0.0003
     22 C         141.3500  139.5216  158.7733 C.ar    1  UNL1       -0.0000
     23 C         141.7713  140.8452  159.3396 C.ar    1  UNL1       -0.0003
     24 C         141.7168  141.0790  160.8203 C.ar    1  UNL1       -0.0043
     25 C         139.9972  141.0273  162.7807 C.3     1  UNL1        0.0215
     26 C         138.6180  140.6139  163.2016 C.3     1  UNL1        0.0723
     27 N         138.4392  139.5554  164.2492 N.3     1  UNL1       -0.2751
     28 C         138.6238  138.0799  164.0522 C.3     1  UNL1        0.0594
     29 C         138.3431  137.3991  165.3590 C.3     1  UNL1        0.0174
     30 C         137.9850  138.4538  166.3636 C.3     1  UNL1        0.0174
     31 C         138.0444  139.7865  165.6778 C.3     1  UNL1        0.0594
     32 C         138.1824  140.9653  164.7446 C.3     1  UNL1        0.0386
     33 C         138.5819  140.5812  163.3508 C.3     1  UNL1        0.0893
     34 C         138.8026  139.1384  163.0046 C.3     1  UNL1        0.0386
     35 N         138.7607  141.6398  162.3032 N.ar    1  UNL1       -0.3167
     36 C         138.3313  141.5425  160.8693 C.ar    1  UNL1        0.1207
     37 C         137.6764  140.2274  160.5669 C.3     1  UNL1        0.0718
     38 N         138.7055  142.8240  160.1855 N.ar    1  UNL1       -0.2309
     39 C         139.3661  143.7134  161.1968 C.ar    1  UNL1        0.0983
     40 C         139.9410  145.0950  161.0950 C.ar    1  UNL1        0.0206
     41 C         140.5500  145.7448  162.3020 C.ar    1  UNL1        0.0016
     42 C         140.5841  145.0128  163.6108 C.ar    1  UNL1        0.0016
     43 C         140.0092  143.6311  163.7127 C.ar    1  UNL1        0.0188
     44 C         139.4002  142.9814  162.5056 C.ar    1  UNL1        0.0785
@<TRIPOS>BOND
     1    17    18    1
     2    18    15    1
     3    15    16    2
     4    15     9    1
     5     9    10   ar
     6    10    11   ar
     7    11    12   ar
     8    12    13   ar
     9    13     1    1
    10     1     2    2
    11     1     3   am
    12     3     4    1
    13     4     5    1
    14     5     6    1
    15     6    25    1
    16    25    26    1
    17    26    27    1
    18    27    28    1
    19    28    29    1
    20    29    30    1
    21    30    31    1
    22    31    32    1
    23    32    33    1
    24    33    35    1
    25    35    36   ar
    26    36    37    1
    27    36    38   ar
    28    38    39   ar
    29    39    40   ar
    30    40    41   ar
    31    41    42   ar
    32    42    43   ar
    33    43    44   ar
    34    33    34    1
    35     6    19    1
    36    19    20   ar
    37    20    21   ar
    38    21    22   ar
    39    22    23   ar
    40    23    24   ar
    41     6     7    1
    42     7     8    1
    43    13    14   ar
    44    14     9   ar
    45     8     3    1
    46    31    27    1
    47    44    35   ar
    48    24    19   ar
    49    34    28    1
    50    44    39   ar
@<TRIPOS>MOLECULE
*****
 44 50 0 0 0
SMALL
GASTEIGER

@<TRIPOS>ATOM
      1 C         143.1412  139.1428  157.7109 C.2     1  UNL1        0.2490
      2 O         144.5055  139.6302  157.3223 O.2     1  UNL1       -0.2699
      3 N         142.3867  139.8255  158.8131 N.am    1  UNL1       -0.2761
      4 C         142.9966  140.9955  159.5266 C.3     1  UNL1        0.0940
      5 C         142.2421  141.6782  160.6287 C.3     1  UNL1        0.0257
      6 C         140.8777  141.1908  161.0174 C.3     1  UNL1        0.0235
      7 C         140.2679  140.0208  160.3039 C.3     1  UNL1        0.0257
      8 C         141.0223  139.3382  159.2017 C.3     1  UNL1        0.0940
      9 C         142.4064  135.4129  156.5719 C.ar    1  UNL1        0.0758
     10 C         141.3114  135.6327  155.5705 C.ar    1  UNL1        0.0064
     11 C         140.8264  137.0227  155.2826 C.ar    1  UNL1        0.0004
     12 C         141.4363  138.1927  155.9960 C.ar    1  UNL1        0.0045
     13 C         142.5312  137.9729  156.9974 C.ar    1  UNL1        0.0538
     14 C         143.0163  136.5829  157.2853 C.ar    1  UNL1        0.0110
     15 C         142.8914  134.0230  156.8597 C.2     1  UNL1        0.3413
     16 O         142.1091  132.8396  156.3723 O.2     1  UNL1       -0.2449
     17 C         144.7829  132.4541  157.7029 C.3     1  UNL1        0.2560
     18 O         144.1587  133.8164  157.6351 O.3     1  UNL1       -0.4413
     19 C         141.0325  142.3289  161.9823 C.ar    1  UNL1       -0.0226
     20 C         141.2534  142.0517  163.4398 C.ar    1  UNL1       -0.0043
     21 C         141.4081  143.1898  164.4047 C.ar    1  UNL1       -0.0003
     22 C         141.3420  144.6050  163.9119 C.ar    1  UNL1       -0.0000
     23 C         141.1211  144.8822  162.4544 C.ar    1  UNL1       -0.0003
     24 C         140.9664  143.7441  161.4896 C.ar    1  UNL1       -0.0043
     25 C         139.5672  141.0988  161.7411 C.3     1  UNL1        0.0215
     26 C         138.2911  141.4348  161.0276 C.3     1  UNL1        0.0723
     27 N         138.2922  141.6290  159.5404 N.3     1  UNL1       -0.2751
     28 C         138.7301  142.8656  158.8129 C.3     1  UNL1        0.0594
     29 C         138.5640  142.6216  157.3422 C.3     1  UNL1        0.0174
     30 C         138.0235  141.2342  157.1607 C.3     1  UNL1        0.0174
     31 C         137.8554  140.6207  158.5192 C.3     1  UNL1        0.0594
     32 C         137.7928  140.2684  159.9859 C.3     1  UNL1        0.0386
     33 C         138.2604  141.3727  160.8868 C.3     1  UNL1        0.0893
     34 C         138.7291  142.6714  160.3003 C.3     1  UNL1        0.0386
     35 N         138.2594  141.1785  162.3742 N.ar    1  UNL1       -0.3167
     36 C         137.9868  142.2371  163.4014 C.ar    1  UNL1        0.1207
     37 C         137.7023  143.5692  162.7734 C.3     1  UNL1        0.0718
     38 N         138.0897  141.6044  164.7575 N.ar    1  UNL1       -0.2309
     39 C         138.4259  140.1548  164.5685 C.ar    1  UNL1        0.0983
     40 C         138.6501  139.0406  165.5473 C.ar    1  UNL1        0.0206
     41 C         138.9791  137.6631  165.0531 C.ar    1  UNL1        0.0016
     42 C         139.0840  137.3999  163.5801 C.ar    1  UNL1        0.0016
     43 C         138.8598  138.5141  162.6013 C.ar    1  UNL1        0.0188
     44 C         138.5308  139.8916  163.0955 C.ar    1  UNL1        0.0785
@<TRIPOS>BOND
     1    17    18    1
     2    18    15    1
     3    15    16    2
     4    15     9    1
     5     9    10   ar
     6    10    11   ar
     7    11    12   ar
     8    12    13   ar
     9    13     1    1
    10     1     2    2
    11     1     3   am
    12     3     4    1
    13     4     5    1
    14     5     6    1
    15     6    25    1
    16    25    26    1
    17    26    27    1
    18    27    28    1
    19    28    29    1
    20    29    30    1
    21    30    31    1
    22    31    32    1
    23    32    33    1
    24    33    35    1
    25    35    36   ar
    26    36    37    1
    27    36    38   ar
    28    38    39   ar
    29    39    40   ar
    30    40    41   ar
    31    41    42   ar
    32    42    43   ar
    33    43    44   ar
    34    33    34    1
    35     6    19    1
    36    19    20   ar
    37    20    21   ar
    38    21    22   ar
    39    22    23   ar
    40    23    24   ar
    41     6     7    1
    42     7     8    1
    43    13    14   ar
    44    14     9   ar
    45     8     3    1
    46    31    27    1
    47    44    35   ar
    48    24    19   ar
    49    34    28    1
    50    44    39   ar
@<TRIPOS>MOLECULE
*****
 44 50 0 0 0
SMALL
GASTEIGER

@<TRIPOS>ATOM
      1 C         139.5303  139.0963  165.0621 C.2     1  UNL1        0.2490
      2 O         138.5727  137.9452  164.9726 O.2     1  UNL1       -0.2699
      3 N         139.7776  139.9612  163.8618 N.am    1  UNL1       -0.2761
      4 C         139.0674  139.6750  162.5719 C.3     1  UNL1        0.0940
      5 C         139.3148  140.5398  161.3716 C.3     1  UNL1        0.0257
      6 C         140.2723  141.6910  161.4611 C.3     1  UNL1        0.0235
      7 C         140.9825  141.9772  162.7509 C.3     1  UNL1        0.0257
      8 C         140.7352  141.1123  163.9513 C.3     1  UNL1        0.0940
      9 C         140.1723  140.1177  168.8429 C.ar    1  UNL1        0.0758
     10 C         141.6608  139.9552  168.9316 C.ar    1  UNL1        0.0064
     11 C         142.4392  139.5065  167.7305 C.ar    1  UNL1        0.0004
     12 C         141.7290  139.2201  166.4406 C.ar    1  UNL1        0.0045
     13 C         140.2405  139.3826  166.3519 C.ar    1  UNL1        0.0538
     14 C         139.4621  139.8314  167.5531 C.ar    1  UNL1        0.0110
     15 C         139.3940  140.5664  170.0440 C.2     1  UNL1        0.3413
     16 O         138.1000  139.8931  170.3938 O.2     1  UNL1       -0.2449
     17 C         139.9757  143.0810  170.3418 C.3     1  UNL1        0.2560
     18 O         139.9096  141.6885  170.8956 O.3     1  UNL1       -0.4413
     19 C         139.8428  141.8201  160.0296 C.ar    1  UNL1       -0.0226
     20 C         138.4898  142.3771  159.6999 C.ar    1  UNL1       -0.0043
     21 C         138.0603  142.5062  158.2685 C.ar    1  UNL1       -0.0003
     22 C         138.9840  142.0782  157.1669 C.ar    1  UNL1       -0.0000
     23 C         140.3371  141.5211  157.4966 C.ar    1  UNL1       -0.0003
     24 C         140.7665  141.3921  158.9281 C.ar    1  UNL1       -0.0043
     25 C         141.0807  142.8869  161.0535 C.3     1  UNL1        0.0215
     26 C         140.7820  144.2318  161.6469 C.3     1  UNL1        0.0723
     27 N         139.8851  144.3409  162.8442 N.3     1  UNL1       -0.2751
     28 C         138.3911  144.2064  162.8419 C.3     1  UNL1        0.0594
     29 C         137.9073  144.3860  164.2503 C.3     1  UNL1        0.0174
     30 C         139.1023  144.6314  165.1231 C.3     1  UNL1        0.0174
     31 C         140.3246  144.6036  164.2541 C.3     1  UNL1        0.0594
     32 C         141.3578  144.5225  163.1562 C.3     1  UNL1        0.0386
     33 C         140.7715  144.2554  161.8017 C.3     1  UNL1        0.0893
     34 C         139.2880  144.0974  161.6445 C.3     1  UNL1        0.0386
     35 N         141.6684  144.1463  160.6044 N.ar    1  UNL1       -0.3167
     36 C         143.0327  143.5235  160.5786 C.ar    1  UNL1        0.1207
     37 C         143.4348  142.9956  161.9238 C.3     1  UNL1        0.0718
     38 N         143.5659  143.6332  159.1809 N.ar    1  UNL1       -0.2309
     39 C         142.5312  144.3238  158.3428 C.ar    1  UNL1        0.0983
     40 C         142.5053  144.7049  156.8923 C.ar    1  UNL1        0.0206
     41 C         141.3067  145.4031  156.3216 C.ar    1  UNL1        0.0016
     42 C         140.1340  145.7203  157.2014 C.ar    1  UNL1        0.0016
     43 C         140.1598  145.3392  158.6519 C.ar    1  UNL1        0.0188
     44 C         141.3584  144.6410  159.2226 C.ar    1  UNL1        0.0785
@<TRIPOS>BOND
     1    17    18    1
     2    18    15    1
     3    15    16    2
     4    15     9    1
     5     9    10   ar
     6    10    11   ar
     7    11    12   ar
     8    12    13   ar
     9    13     1    1
    10     1     2    2
    11     1     3   am
    12     3     4    1
    13     4     5    1
    14     5     6    1
    15     6    25    1
    16    25    26    1
    17    26    27    1
    18    27    28    1
    19    28    29    1
    20    29    30    1
    21    30    31    1
    22    31    32    1
    23    32    33    1
    24    33    35    1
    25    35    36   ar
    26    36    37    1
    27    36    38   ar
    28    38    39   ar
    29    39    40   ar
    30    40    41   ar
    31    41    42   ar
    32    42    43   ar
    33    43    44   ar
    34    33    34    1
    35     6    19    1
    36    19    20   ar
    37    20    21   ar
    38    21    22   ar
    39    22    23   ar
    40    23    24   ar
    41     6     7    1
    42     7     8    1
    43    13    14   ar
    44    14     9   ar
    45     8     3    1
    46    31    27    1
    47    44    35   ar
    48    24    19   ar
    49    34    28    1
    50    44    39   ar
@<TRIPOS>MOLECULE
*****
 44 50 0 0 0
SMALL
GASTEIGER

@<TRIPOS>ATOM
      1 C         138.8088  139.1885  166.7116 C.2     1  UNL1        0.2490
      2 O         137.8634  138.0286  166.6066 O.2     1  UNL1       -0.2699
      3 N         139.2605  139.9025  165.4722 N.am    1  UNL1       -0.2761
      4 C         138.7668  139.4566  164.1277 C.3     1  UNL1        0.0940
      5 C         139.2185  140.1706  162.8883 C.3     1  UNL1        0.0257
      6 C         140.1640  141.3305  162.9933 C.3     1  UNL1        0.0235
      7 C         140.6577  141.7763  164.3377 C.3     1  UNL1        0.0257
      8 C         140.2059  141.0623  165.5772 C.3     1  UNL1        0.0940
      9 C         141.2696  140.1978  169.6571 C.ar    1  UNL1        0.0758
     10 C         140.2902  140.5261  170.7447 C.ar    1  UNL1        0.0064
     11 C         138.8170  140.4085  170.4880 C.ar    1  UNL1        0.0004
     12 C         138.3232  139.9626  169.1437 C.ar    1  UNL1        0.0045
     13 C         139.3026  139.6343  168.0560 C.ar    1  UNL1        0.0538
     14 C         140.7758  139.7519  168.3127 C.ar    1  UNL1        0.0110
     15 C         142.7427  140.3153  169.9138 C.2     1  UNL1        0.3413
     16 O         143.4919  139.1673  170.5228 O.2     1  UNL1       -0.2449
     17 C         143.0914  142.8705  170.2294 C.3     1  UNL1        0.2560
     18 O         143.4668  141.5809  169.5616 O.3     1  UNL1       -0.4413
     19 C         139.9759  141.2815  161.5059 C.ar    1  UNL1       -0.0226
     20 C         138.6541  141.6567  160.9043 C.ar    1  UNL1       -0.0043
     21 C         138.4660  141.6078  159.4169 C.ar    1  UNL1       -0.0003
     22 C         139.5998  141.1835  158.5312 C.ar    1  UNL1       -0.0000
     23 C         140.9217  140.8082  159.1328 C.ar    1  UNL1       -0.0003
     24 C         141.1096  140.8572  160.6202 C.ar    1  UNL1       -0.0043
     25 C         141.0440  142.4732  162.5817 C.3     1  UNL1        0.0215
     26 C         140.6224  143.8846  162.8654 C.3     1  UNL1        0.0723
     27 N         139.3949  144.1502  163.6855 N.3     1  UNL1       -0.2751
     28 C         137.9767  144.0575  163.2056 C.3     1  UNL1        0.0594
     29 C         137.0754  144.4052  164.3530 C.3     1  UNL1        0.0174
     30 C         137.9365  144.7128  165.5421 C.3     1  UNL1        0.0174
     31 C         139.3700  144.5552  165.1296 C.3     1  UNL1        0.0594
     32 C         140.6956  144.3246  164.4450 C.3     1  UNL1        0.0386
     33 C         140.5638  143.9254  163.0052 C.3     1  UNL1        0.0893
     34 C         139.2042  143.7918  162.3854 C.3     1  UNL1        0.0386
     35 N         141.7913  143.6598  162.1850 N.ar    1  UNL1       -0.3167
     36 C         141.9687  143.9873  160.7320 C.ar    1  UNL1        0.1207
     37 C         140.7479  144.6351  160.1489 C.3     1  UNL1        0.0718
     38 N         143.3440  143.5499  160.3229 N.ar    1  UNL1       -0.2309
     39 C         144.0165  142.9520  161.5230 C.ar    1  UNL1        0.0983
     40 C         145.3786  142.3546  161.7166 C.ar    1  UNL1        0.0206
     41 C         145.7812  141.8251  163.0610 C.ar    1  UNL1        0.0016
     42 C         144.8215  141.8930  164.2118 C.ar    1  UNL1        0.0016
     43 C         143.4594  142.4904  164.0183 C.ar    1  UNL1        0.0188
     44 C         143.0568  143.0199  162.6739 C.ar    1  UNL1        0.0785
@<TRIPOS>BOND
     1    17    18    1
     2    18    15    1
     3    15    16    2
     4    15     9    1
     5     9    10   ar
     6    10    11   ar
     7    11    12   ar
     8    12    13   ar
     9    13     1    1
    10     1     2    2
    11     1     3   am
    12     3     4    1
    13     4     5    1
    14     5     6    1
    15     6    25    1
    16    25    26    1
    17    26    27    1
    18    27    28    1
    19    28    29    1
    20    29    30    1
    21    30    31    1
    22    31    32    1
    23    32    33    1
    24    33    35    1
    25    35    36   ar
    26    36    37    1
    27    36    38   ar
    28    38    39   ar
    29    39    40   ar
    30    40    41   ar
    31    41    42   ar
    32    42    43   ar
    33    43    44   ar
    34    33    34    1
    35     6    19    1
    36    19    20   ar
    37    20    21   ar
    38    21    22   ar
    39    22    23   ar
    40    23    24   ar
    41     6     7    1
    42     7     8    1
    43    13    14   ar
    44    14     9   ar
    45     8     3    1
    46    31    27    1
    47    44    35   ar
    48    24    19   ar
    49    34    28    1
    50    44    39   ar
@<TRIPOS>MOLECULE
*****
 44 50 0 0 0
SMALL
GASTEIGER

@<TRIPOS>ATOM
      1 C         140.6440  139.0203  165.3258 C.2     1  UNL1        0.2490
      2 O         140.2230  137.5933  165.1344 O.2     1  UNL1       -0.2699
      3 N         140.6917  139.9522  164.1514 N.am    1  UNL1       -0.2761
      4 C         140.3183  139.4572  162.7855 C.3     1  UNL1        0.0940
      5 C         140.3660  140.3890  161.6111 C.3     1  UNL1        0.0257
      6 C         140.7870  141.8160  161.8025 C.3     1  UNL1        0.0235
      7 C         141.1604  142.3110  163.1684 C.3     1  UNL1        0.0257
      8 C         141.1127  141.3791  164.3428 C.3     1  UNL1        0.0940
      9 C         140.3215  140.4422  169.0169 C.ar    1  UNL1        0.0758
     10 C         141.7639  140.5055  169.4234 C.ar    1  UNL1        0.0064
     11 C         142.8331  140.0737  168.4640 C.ar    1  UNL1        0.0004
     12 C         142.4599  139.5786  167.0981 C.ar    1  UNL1        0.0045
     13 C         141.0174  139.5153  166.6916 C.ar    1  UNL1        0.0538
     14 C         139.9482  139.9471  167.6510 C.ar    1  UNL1        0.0110
     15 C         139.2523  140.8740  169.9762 C.2     1  UNL1        0.3413
     16 O         138.0879  139.9711  170.2577 O.2     1  UNL1       -0.2449
     17 C         140.1122  143.3255  170.0078 C.3     1  UNL1        0.2560
     18 O         139.3475  142.2087  170.6542 O.3     1  UNL1       -0.4413
     19 C         140.5287  141.8166  160.3249 C.ar    1  UNL1       -0.0226
     20 C         141.5016  141.1568  159.3932 C.ar    1  UNL1       -0.0043
     21 C         141.2432  141.1574  157.9155 C.ar    1  UNL1       -0.0003
     22 C         140.0120  141.8178  157.3697 C.ar    1  UNL1       -0.0000
     23 C         139.0391  142.4777  158.3015 C.ar    1  UNL1       -0.0003
     24 C         139.2976  142.4770  159.7791 C.ar    1  UNL1       -0.0043
     25 C         141.1183  143.2431  161.4808 C.3     1  UNL1        0.0215
     26 C         142.5311  143.7316  161.6056 C.3     1  UNL1        0.0723
     27 N         143.5516  142.8998  162.3241 N.3     1  UNL1       -0.2751
     28 C         144.2466  141.6889  161.7757 C.3     1  UNL1        0.0594
     29 C         145.1809  141.1734  162.8299 C.3     1  UNL1        0.0174
     30 C         145.0633  142.0657  164.0299 C.3     1  UNL1        0.0174
     31 C         144.0564  143.1326  163.7174 C.3     1  UNL1        0.0594
     32 C         143.0224  144.0662  163.1356 C.3     1  UNL1        0.0386
     33 C         142.6139  143.7095  161.7371 C.3     1  UNL1        0.0893
     34 C         143.2261  142.5208  161.0571 C.3     1  UNL1        0.0386
     35 N         141.5933  144.5414  161.0185 N.ar    1  UNL1       -0.3167
     36 C         140.4335  145.2533  161.6494 C.ar    1  UNL1        0.1207
     37 C         140.3874  145.0460  163.1343 C.3     1  UNL1        0.0718
     38 N         139.6768  145.9593  160.5637 N.ar    1  UNL1       -0.2309
     39 C         140.3690  145.6839  159.2617 C.ar    1  UNL1        0.0983
     40 C         140.0737  146.1177  157.8566 C.ar    1  UNL1        0.0206
     41 C         140.9629  145.6753  156.7325 C.ar    1  UNL1        0.0016
     42 C         142.1474  144.7990  157.0137 C.ar    1  UNL1        0.0016
     43 C         142.4427  144.3651  158.4188 C.ar    1  UNL1        0.0188
     44 C         141.5535  144.8075  159.5428 C.ar    1  UNL1        0.0785
@<TRIPOS>BOND
     1    17    18    1
     2    18    15    1
     3    15    16    2
     4    15     9    1
     5     9    10   ar
     6    10    11   ar
     7    11    12   ar
     8    12    13   ar
     9    13     1    1
    10     1     2    2
    11     1     3   am
    12     3     4    1
    13     4     5    1
    14     5     6    1
    15     6    25    1
    16    25    26    1
    17    26    27    1
    18    27    28    1
    19    28    29    1
    20    29    30    1
    21    30    31    1
    22    31    32    1
    23    32    33    1
    24    33    35    1
    25    35    36   ar
    26    36    37    1
    27    36    38   ar
    28    38    39   ar
    29    39    40   ar
    30    40    41   ar
    31    41    42   ar
    32    42    43   ar
    33    43    44   ar
    34    33    34    1
    35     6    19    1
    36    19    20   ar
    37    20    21   ar
    38    21    22   ar
    39    22    23   ar
    40    23    24   ar
    41     6     7    1
    42     7     8    1
    43    13    14   ar
    44    14     9   ar
    45     8     3    1
    46    31    27    1
    47    44    35   ar
    48    24    19   ar
    49    34    28    1
    50    44    39   ar
@<TRIPOS>MOLECULE
*****
 44 50 0 0 0
SMALL
GASTEIGER

@<TRIPOS>ATOM
      1 C         143.0411  139.0659  157.7228 C.2     1  UNL1        0.2490
      2 O         144.4131  139.5243  157.3259 O.2     1  UNL1       -0.2699
      3 N         142.3124  139.7573  158.8367 N.am    1  UNL1       -0.2761
      4 C         142.9557  140.9071  159.5539 C.3     1  UNL1        0.0940
      5 C         142.2270  141.5985  160.6678 C.3     1  UNL1        0.0257
      6 C         140.8549  141.1401  161.0647 C.3     1  UNL1        0.0235
      7 C         140.2117  139.9904  160.3476 C.3     1  UNL1        0.0257
      8 C         140.9404  139.2990  159.2336 C.3     1  UNL1        0.0940
      9 C         140.5101  136.9882  155.4806 C.ar    1  UNL1        0.0758
     10 C         141.1109  135.6168  155.5715 C.ar    1  UNL1        0.0064
     11 C         142.3550  135.3951  156.3796 C.ar    1  UNL1        0.0004
     12 C         142.9985  136.5447  157.0967 C.ar    1  UNL1        0.0045
     13 C         142.3977  137.9162  157.0057 C.ar    1  UNL1        0.0538
     14 C         141.1536  138.1379  156.1977 C.ar    1  UNL1        0.0110
     15 C         139.2660  137.2099  154.6726 C.2     1  UNL1        0.3413
     16 O         137.9255  137.2148  155.3457 O.2     1  UNL1       -0.2449
     17 C         139.1541  136.2776  152.2501 C.3     1  UNL1        0.2560
     18 O         139.3623  137.4268  153.1914 O.3     1  UNL1       -0.4413
     19 C         141.0447  142.2666  162.0370 C.ar    1  UNL1       -0.0226
     20 C         141.2782  141.9726  163.4892 C.ar    1  UNL1       -0.0043
     21 C         141.4679  143.0991  164.4614 C.ar    1  UNL1       -0.0003
     22 C         141.4242  144.5195  163.9812 C.ar    1  UNL1       -0.0000
     23 C         141.1906  144.8135  162.5289 C.ar    1  UNL1       -0.0003
     24 C         141.0009  143.6869  161.5568 C.ar    1  UNL1       -0.0043
     25 C         139.5489  141.0730  161.7992 C.3     1  UNL1        0.0215
     26 C         138.2740  141.4362  161.0972 C.3     1  UNL1        0.0723
     27 N         138.2657  141.6295  159.6098 N.3     1  UNL1       -0.2751
     28 C         138.7219  142.8566  158.8775 C.3     1  UNL1        0.0594
     29 C         138.5379  142.6152  157.4086 C.3     1  UNL1        0.0174
     30 C         137.9679  141.2389  157.2329 C.3     1  UNL1        0.0174
     31 C         137.7996  140.6297  158.5932 C.3     1  UNL1        0.0594
     32 C         137.7430  140.2795  160.0607 C.3     1  UNL1        0.0386
     33 C         138.2407  141.3746  160.9566 C.3     1  UNL1        0.0893
     34 C         138.7303  142.6633  160.3650 C.3     1  UNL1        0.0386
     35 N         138.2491  141.1813  162.4441 N.ar    1  UNL1       -0.3167
     36 C         137.9950  142.2432  163.4726 C.ar    1  UNL1        0.1207
     37 C         137.7191  143.5778  162.8460 C.3     1  UNL1        0.0718
     38 N         138.1018  141.6103  164.8284 N.ar    1  UNL1       -0.2309
     39 C         138.4219  140.1573  164.6377 C.ar    1  UNL1        0.0983
     40 C         138.6423  139.0414  165.6155 C.ar    1  UNL1        0.0206
     41 C         138.9537  137.6604  165.1198 C.ar    1  UNL1        0.0016
     42 C         139.0447  137.3953  163.6462 C.ar    1  UNL1        0.0016
     43 C         138.8243  138.5112  162.6684 C.ar    1  UNL1        0.0188
     44 C         138.5129  139.8922  163.1641 C.ar    1  UNL1        0.0785
@<TRIPOS>BOND
     1    17    18    1
     2    18    15    1
     3    15    16    2
     4    15     9    1
     5     9    10   ar
     6    10    11   ar
     7    11    12   ar
     8    12    13   ar
     9    13     1    1
    10     1     2    2
    11     1     3   am
    12     3     4    1
    13     4     5    1
    14     5     6    1
    15     6    25    1
    16    25    26    1
    17    26    27    1
    18    27    28    1
    19    28    29    1
    20    29    30    1
    21    30    31    1
    22    31    32    1
    23    32    33    1
    24    33    35    1
    25    35    36   ar
    26    36    37    1
    27    36    38   ar
    28    38    39   ar
    29    39    40   ar
    30    40    41   ar
    31    41    42   ar
    32    42    43   ar
    33    43    44   ar
    34    33    34    1
    35     6    19    1
    36    19    20   ar
    37    20    21   ar
    38    21    22   ar
    39    22    23   ar
    40    23    24   ar
    41     6     7    1
    42     7     8    1
    43    13    14   ar
    44    14     9   ar
    45     8     3    1
    46    31    27    1
    47    44    35   ar
    48    24    19   ar
    49    34    28    1
    50    44    39   ar
@<TRIPOS>MOLECULE
*****
 44 50 0 0 0
SMALL
GASTEIGER

@<TRIPOS>ATOM
      1 C         139.5302  139.0887  165.1387 C.2     1  UNL1        0.2490
      2 O         138.5988  137.9162  165.0499 O.2     1  UNL1       -0.2699
      3 N         139.7649  139.9529  163.9353 N.am    1  UNL1       -0.2761
      4 C         139.0683  139.6446  162.6431 C.3     1  UNL1        0.0940
      5 C         139.3030  140.5088  161.4398 C.3     1  UNL1        0.0257
      6 C         140.2344  141.6813  161.5286 C.3     1  UNL1        0.0235
      7 C         140.9310  141.9896  162.8208 C.3     1  UNL1        0.0257
      8 C         140.6963  141.1254  164.0241 C.3     1  UNL1        0.0940
      9 C         140.1303  140.1571  168.9134 C.ar    1  UNL1        0.0758
     10 C         141.6200  140.0137  169.0151 C.ar    1  UNL1        0.0064
     11 C         142.4131  139.5620  167.8248 C.ar    1  UNL1        0.0004
     12 C         141.7165  139.2537  166.5326 C.ar    1  UNL1        0.0045
     13 C         140.2268  139.3970  166.4308 C.ar    1  UNL1        0.0538
     14 C         139.4338  139.8487  167.6212 C.ar    1  UNL1        0.0110
     15 C         139.3373  140.6087  170.1037 C.2     1  UNL1        0.3413
     16 O         138.0782  139.8874  170.4837 O.2     1  UNL1       -0.2449
     17 C         140.0572  143.1010  170.2469 C.3     1  UNL1        0.2560
     18 O         139.8033  141.7818  170.9142 O.3     1  UNL1       -0.4413
     19 C         139.8100  141.7938  160.0942 C.ar    1  UNL1       -0.0226
     20 C         138.4558  142.3416  159.7535 C.ar    1  UNL1       -0.0043
     21 C         138.0314  142.4540  158.3191 C.ar    1  UNL1       -0.0003
     22 C         138.9613  142.0186  157.2256 C.ar    1  UNL1       -0.0000
     23 C         140.3155  141.4707  157.5664 C.ar    1  UNL1       -0.0003
     24 C         140.7397  141.3583  159.0007 C.ar    1  UNL1       -0.0043
     25 C         141.0183  142.8928  161.1193 C.3     1  UNL1        0.0215
     26 C         140.6518  144.2421  161.6626 C.3     1  UNL1        0.0723
     27 N         139.7693  144.3498  162.8705 N.3     1  UNL1       -0.2751
     28 C         138.2772  144.1968  162.8889 C.3     1  UNL1        0.0594
     29 C         137.8095  144.3819  164.3020 C.3     1  UNL1        0.0174
     30 C         139.0125  144.6493  165.1571 C.3     1  UNL1        0.0174
     31 C         140.2237  144.6295  164.2725 C.3     1  UNL1        0.0594
     32 C         141.2435  144.5522  163.1619 C.3     1  UNL1        0.0386
     33 C         140.6430  144.2668  161.8173 C.3     1  UNL1        0.0893
     34 C         139.1598  144.0891  161.6808 C.3     1  UNL1        0.0386
     35 N         141.5256  144.1591  160.6093 N.ar    1  UNL1       -0.3167
     36 C         141.2572  144.7665  159.2643 C.ar    1  UNL1        0.1207
     37 C         139.9644  145.5266  159.2390 C.3     1  UNL1        0.0718
     38 N         142.3974  144.4078  158.3579 N.ar    1  UNL1       -0.2309
     39 C         143.3704  143.5788  159.1428 C.ar    1  UNL1        0.0983
     40 C         144.6774  142.9441  158.7702 C.ar    1  UNL1        0.0206
     41 C         145.4456  142.1556  159.7890 C.ar    1  UNL1        0.0016
     42 C         144.9068  142.0018  161.1805 C.ar    1  UNL1        0.0016
     43 C         143.5998  142.6366  161.5531 C.ar    1  UNL1        0.0188
     44 C         142.8316  143.4251  160.5342 C.ar    1  UNL1        0.0785
@<TRIPOS>BOND
     1    17    18    1
     2    18    15    1
     3    15    16    2
     4    15     9    1
     5     9    10   ar
     6    10    11   ar
     7    11    12   ar
     8    12    13   ar
     9    13     1    1
    10     1     2    2
    11     1     3   am
    12     3     4    1
    13     4     5    1
    14     5     6    1
    15     6    25    1
    16    25    26    1
    17    26    27    1
    18    27    28    1
    19    28    29    1
    20    29    30    1
    21    30    31    1
    22    31    32    1
    23    32    33    1
    24    33    35    1
    25    35    36   ar
    26    36    37    1
    27    36    38   ar
    28    38    39   ar
    29    39    40   ar
    30    40    41   ar
    31    41    42   ar
    32    42    43   ar
    33    43    44   ar
    34    33    34    1
    35     6    19    1
    36    19    20   ar
    37    20    21   ar
    38    21    22   ar
    39    22    23   ar
    40    23    24   ar
    41     6     7    1
    42     7     8    1
    43    13    14   ar
    44    14     9   ar
    45     8     3    1
    46    31    27    1
    47    44    35   ar
    48    24    19   ar
    49    34    28    1
    50    44    39   ar
@<TRIPOS>MOLECULE
*****
 44 50 0 0 0
SMALL
GASTEIGER

@<TRIPOS>ATOM
      1 C         139.3296  140.4250  158.2368 C.2     1  UNL1        0.2490
      2 O         138.3829  139.5140  157.5131 O.2     1  UNL1       -0.2699
      3 N         139.4873  140.3143  159.7244 N.am    1  UNL1       -0.2761
      4 C         138.6982  139.2926  160.4883 C.3     1  UNL1        0.0940
      5 C         138.8558  139.1819  161.9758 C.3     1  UNL1        0.0257
      6 C         139.8025  140.0930  162.6996 C.3     1  UNL1        0.0235
      7 C         140.5916  141.1146  161.9357 C.3     1  UNL1        0.0257
      8 C         140.4340  141.2253  160.4481 C.3     1  UNL1        0.0940
      9 C         140.3960  143.8731  156.5865 C.ar    1  UNL1        0.0758
     10 C         141.6969  143.4902  155.9454 C.ar    1  UNL1        0.0064
     11 C         142.2088  142.0856  156.0682 C.ar    1  UNL1        0.0004
     12 C         141.4197  141.0638  156.8319 C.ar    1  UNL1        0.0045
     13 C         140.1188  141.4467  157.4730 C.ar    1  UNL1        0.0538
     14 C         139.6069  142.8513  157.3503 C.ar    1  UNL1        0.0110
     15 C         139.8842  145.2776  156.4637 C.2     1  UNL1        0.3413
     16 O         140.1577  146.2734  157.5518 O.2     1  UNL1       -0.2449
     17 C         137.7331  145.1131  155.0160 C.3     1  UNL1        0.2560
     18 O         139.0987  145.6866  155.2530 O.3     1  UNL1       -0.4413
     19 C         139.2790  139.2909  163.8541 C.ar    1  UNL1       -0.0226
     20 C         138.4400  139.9517  164.9072 C.ar    1  UNL1       -0.0043
     21 C         137.9165  139.1497  166.0617 C.ar    1  UNL1       -0.0003
     22 C         138.2322  137.6867  166.1629 C.ar    1  UNL1       -0.0000
     23 C         139.0713  137.0259  165.1096 C.ar    1  UNL1       -0.0003
     24 C         139.5947  137.8280  163.9552 C.ar    1  UNL1       -0.0043
     25 C         140.5674  140.7254  163.8242 C.3     1  UNL1        0.0215
     26 C         142.0431  140.4889  163.9539 C.3     1  UNL1        0.0723
     27 N         142.7847  139.7647  162.8699 N.3     1  UNL1       -0.2751
     28 C         142.8304  138.2781  162.6744 C.3     1  UNL1        0.0594
     29 C         143.6849  137.9944  161.4746 C.3     1  UNL1        0.0174
     30 C         144.1673  139.3056  160.9287 C.3     1  UNL1        0.0174
     31 C         143.6110  140.3997  161.7910 C.3     1  UNL1        0.0594
     32 C         142.9243  141.2734  162.8128 C.3     1  UNL1        0.0386
     33 C         142.1356  140.5002  163.8277 C.3     1  UNL1        0.0893
     34 C         142.0887  139.0024  163.7585 C.3     1  UNL1        0.0386
     35 N         141.3939  141.2245  164.9118 N.ar    1  UNL1       -0.3167
     36 C         141.2525  140.7744  166.3356 C.ar    1  UNL1        0.1207
     37 C         141.9543  139.4725  166.5857 C.3     1  UNL1        0.0718
     38 N         140.4346  141.7978  167.0661 N.ar    1  UNL1       -0.2309
     39 C         140.0705  142.8803  166.0938 C.ar    1  UNL1        0.0983
     40 C         139.2757  144.1430  166.2487 C.ar    1  UNL1        0.0206
     41 C         139.0738  145.0512  165.0722 C.ar    1  UNL1        0.0016
     42 C         139.6667  144.6969  163.7407 C.ar    1  UNL1        0.0016
     43 C         140.4615  143.4343  163.5858 C.ar    1  UNL1        0.0188
     44 C         140.6634  142.5260  164.7623 C.ar    1  UNL1        0.0785
@<TRIPOS>BOND
     1    17    18    1
     2    18    15    1
     3    15    16    2
     4    15     9    1
     5     9    10   ar
     6    10    11   ar
     7    11    12   ar
     8    12    13   ar
     9    13     1    1
    10     1     2    2
    11     1     3   am
    12     3     4    1
    13     4     5    1
    14     5     6    1
    15     6    25    1
    16    25    26    1
    17    26    27    1
    18    27    28    1
    19    28    29    1
    20    29    30    1
    21    30    31    1
    22    31    32    1
    23    32    33    1
    24    33    35    1
    25    35    36   ar
    26    36    37    1
    27    36    38   ar
    28    38    39   ar
    29    39    40   ar
    30    40    41   ar
    31    41    42   ar
    32    42    43   ar
    33    43    44   ar
    34    33    34    1
    35     6    19    1
    36    19    20   ar
    37    20    21   ar
    38    21    22   ar
    39    22    23   ar
    40    23    24   ar
    41     6     7    1
    42     7     8    1
    43    13    14   ar
    44    14     9   ar
    45     8     3    1
    46    31    27    1
    47    44    35   ar
    48    24    19   ar
    49    34    28    1
    50    44    39   ar
@<TRIPOS>MOLECULE
*****
 44 50 0 0 0
SMALL
GASTEIGER

@<TRIPOS>ATOM
      1 C         138.4809  140.3452  158.0245 C.2     1  UNL1        0.2490
      2 O         136.9873  140.2489  157.9251 O.2     1  UNL1       -0.2699
      3 N         139.1129  140.9885  159.2232 N.am    1  UNL1       -0.2761
      4 C         138.2512  141.5354  160.3225 C.3     1  UNL1        0.0940
      5 C         138.8831  142.1786  161.5212 C.3     1  UNL1        0.0257
      6 C         140.3768  142.2750  161.6206 C.3     1  UNL1        0.0235
      7 C         141.2384  141.7281  160.5213 C.3     1  UNL1        0.0257
      8 C         140.6065  141.0848  159.3226 C.3     1  UNL1        0.0940
      9 C         140.7775  137.8698  155.9394 C.ar    1  UNL1        0.0758
     10 C         141.0661  138.7044  154.7269 C.ar    1  UNL1        0.0064
     11 C         140.4929  140.0859  154.6135 C.ar    1  UNL1        0.0004
     12 C         139.6312  140.6329  155.7127 C.ar    1  UNL1        0.0045
     13 C         139.3426  139.7983  156.9253 C.ar    1  UNL1        0.0538
     14 C         139.9158  138.4168  157.0386 C.ar    1  UNL1        0.0110
     15 C         141.3507  136.4884  156.0527 C.2     1  UNL1        0.3413
     16 O         140.7417  135.3577  155.2774 O.2     1  UNL1       -0.2449
     17 C         143.2921  134.9481  156.8331 C.3     1  UNL1        0.2560
     18 O         142.5329  136.2373  156.9412 O.3     1  UNL1       -0.4413
     19 C         139.9867  142.9350  162.9100 C.ar    1  UNL1       -0.0226
     20 C         140.2283  142.2345  164.2142 C.ar    1  UNL1       -0.0043
     21 C         139.8382  142.8945  165.5035 C.ar    1  UNL1       -0.0003
     22 C         139.2066  144.2550  165.4885 C.ar    1  UNL1       -0.0000
     23 C         138.9651  144.9555  164.1843 C.ar    1  UNL1       -0.0003
     24 C         139.3552  144.2954  162.8950 C.ar    1  UNL1       -0.0043
     25 C         141.7348  142.6005  162.1678 C.3     1  UNL1        0.0215
     26 C         142.5788  143.6489  161.5054 C.3     1  UNL1        0.0723
     27 N         142.1684  144.2137  160.1779 N.3     1  UNL1       -0.2751
     28 C         141.1205  145.2631  159.9522 C.3     1  UNL1        0.0594
     29 C         141.0382  145.5263  158.4778 C.3     1  UNL1        0.0174
     30 C         142.0351  144.6397  157.7922 C.3     1  UNL1        0.0174
     31 C         142.7337  143.8285  158.8429 C.3     1  UNL1        0.0594
     32 C         143.2578  143.1626  160.0924 C.3     1  UNL1        0.0386
     33 C         142.5997  143.6479  161.3498 C.3     1  UNL1        0.0893
     34 C         141.5310  144.6982  161.2797 C.3     1  UNL1        0.0386
     35 N         143.0102  143.0830  162.6774 N.ar    1  UNL1       -0.3167
     36 C         143.0848  143.8376  163.9716 C.ar    1  UNL1        0.1207
     37 C         142.6925  145.2760  163.8067 C.3     1  UNL1        0.0718
     38 N         143.5389  142.8853  165.0379 N.ar    1  UNL1       -0.2309
     39 C         143.7449  141.5421  164.4026 C.ar    1  UNL1        0.0983
     40 C         144.1878  140.2236  164.9641 C.ar    1  UNL1        0.0206
     41 C         144.3039  139.0273  164.0668 C.ar    1  UNL1        0.0016
     42 C         143.9772  139.1495  162.6079 C.ar    1  UNL1        0.0016
     43 C         143.5343  140.4680  162.0464 C.ar    1  UNL1        0.0188
     44 C         143.4181  141.6643  162.9438 C.ar    1  UNL1        0.0785
@<TRIPOS>BOND
     1    17    18    1
     2    18    15    1
     3    15    16    2
     4    15     9    1
     5     9    10   ar
     6    10    11   ar
     7    11    12   ar
     8    12    13   ar
     9    13     1    1
    10     1     2    2
    11     1     3   am
    12     3     4    1
    13     4     5    1
    14     5     6    1
    15     6    25    1
    16    25    26    1
    17    26    27    1
    18    27    28    1
    19    28    29    1
    20    29    30    1
    21    30    31    1
    22    31    32    1
    23    32    33    1
    24    33    35    1
    25    35    36   ar
    26    36    37    1
    27    36    38   ar
    28    38    39   ar
    29    39    40   ar
    30    40    41   ar
    31    41    42   ar
    32    42    43   ar
    33    43    44   ar
    34    33    34    1
    35     6    19    1
    36    19    20   ar
    37    20    21   ar
    38    21    22   ar
    39    22    23   ar
    40    23    24   ar
    41     6     7    1
    42     7     8    1
    43    13    14   ar
    44    14     9   ar
    45     8     3    1
    46    31    27    1
    47    44    35   ar
    48    24    19   ar
    49    34    28    1
    50    44    39   ar
