@<TRIPOS>MOLECULE
*****
 35 38 0 0 0
SMALL
GASTEIGER

@<TRIPOS>ATOM
      1 N         139.1074  137.8257  160.6801 N.am    1  UNL1       -0.3018
      2 C         139.9252  138.5923  159.6835 C.2     1  UNL1        0.2425
      3 O         140.7547  139.7586  160.1325 O.2     1  UNL1       -0.2733
      4 H         138.5629  137.0602  160.3854 H       1  UNL1        0.1495
      5 N         139.1353  138.7908  164.1704 N.3     1  UNL1       -0.2711
      6 C         138.5273  139.3525  162.9194 C.3     1  UNL1        0.0933
      7 C         139.1190  138.2254  162.1258 C.3     1  UNL1        0.1035
      8 C         139.7270  137.6638  163.3767 C.3     1  UNL1        0.0933
      9 C         139.1702  139.9900  168.5075 C.3     1  UNL1        0.0992
     10 C         140.2630  140.4559  167.5918 C.3     1  UNL1        0.0125
     11 C         140.2514  140.0561  166.1460 C.3     1  UNL1        0.0165
     12 C         139.1469  139.1905  165.6161 C.3     1  UNL1        0.0576
     13 C         138.0541  138.7247  166.5318 C.3     1  UNL1        0.0165
     14 C         138.0657  139.1244  167.9775 C.3     1  UNL1        0.0125
     15 C         139.1817  140.3897  169.9532 C.2     1  UNL1        0.3164
     16 O         139.3035  139.3423  171.0200 O.2     1  UNL1       -0.2501
     17 O         139.0713  141.8369  170.3321 O.3     1  UNL1       -0.4485
     18 C         140.4417  143.9953  169.8704 C.3     1  UNL1        0.0513
     19 C         140.3116  142.6562  170.5335 C.3     1  UNL1        0.2086
     20 C         139.9136  138.1926  158.2378 C.3     1  UNL1        0.1747
     21 N         141.1892  137.7841  157.5623 N.pl3   1  UNL1       -0.3080
     22 H         142.0524  138.1198  157.8961 H       1  UNL1        0.1487
     23 C         141.1495  136.8641  156.3782 C.ar    1  UNL1        0.1708
     24 N         140.2869  137.0288  155.1622 N.ar    1  UNL1       -0.0621
     25 O         140.5698  135.8844  154.2348 O.2     1  UNL1       -0.3522
     26 C         141.6073  135.0123  154.8775 C.ar    1  UNL1        0.1781
     27 C         142.2720  133.7451  154.4277 C.ar    1  UNL1        0.0402
     28 C         143.2950  133.0835  155.3027 C.ar    1  UNL1        0.0071
     29 C         143.6533  133.6890  156.6274 C.ar    1  UNL1        0.0717
     30 C         142.9886  134.9562  157.0772 C.ar    1  UNL1        0.0099
     31 C         141.9656  135.6178  156.2023 C.ar    1  UNL1        0.0717
     32 C         144.6764  133.0273  157.5024 C.3     1  UNL1        0.4186
     33 F         145.6995  132.3656  158.3773 F       1  UNL1       -0.1659
     34 F         145.1479  132.2123  156.3347 F       1  UNL1       -0.1659
     35 F         144.2049  133.8423  158.6700 F       1  UNL1       -0.1659
@<TRIPOS>BOND
     1    18    19    1
     2    19    17    1
     3    17    15    1
     4    15    16    2
     5     9    15    1
     6     9    10    1
     7    10    11    1
     8    11    12    1
     9    12     5    1
    10     5     6    1
    11     6     7    1
    12     7     1    1
    13     1     2   am
    14     2     3    2
    15     2    20    1
    16    20    21    1
    17    21    23    1
    18    23    24   ar
    19    24    25   ar
    20    25    26   ar
    21    26    27   ar
    22    27    28   ar
    23    28    29   ar
    24    29    32    1
    25    32    33    1
    26    32    34    1
    27    32    35    1
    28    29    30   ar
    29    30    31   ar
    30     7     8    1
    31    12    13    1
    32    13    14    1
    33    14     9    1
    34     8     5    1
    35    31    23   ar
    36    31    26   ar
    37     1     4    1
    38    21    22    1
@<TRIPOS>MOLECULE
*****
 35 38 0 0 0
SMALL
GASTEIGER

@<TRIPOS>ATOM
      1 N         141.2939  138.2377  160.4026 N.am    1  UNL1       -0.3018
      2 C         142.5294  138.2403  159.5521 C.2     1  UNL1        0.2425
      3 O         143.8672  138.5127  160.1736 O.2     1  UNL1       -0.2733
      4 H         140.4159  138.0589  159.9947 H       1  UNL1        0.1495
      5 N         141.5407  138.8888  163.9564 N.3     1  UNL1       -0.2711
      6 C         141.2052  137.6908  163.1183 C.3     1  UNL1        0.0933
      7 C         141.3961  138.5074  161.8746 C.3     1  UNL1        0.1035
      8 C         141.7317  139.7053  162.7127 C.3     1  UNL1        0.0933
      9 C         141.8474  139.6979  168.3724 C.3     1  UNL1        0.0992
     10 C         140.5864  140.0359  167.6338 C.3     1  UNL1        0.0125
     11 C         140.4841  139.7661  166.1618 C.3     1  UNL1        0.0165
     12 C         141.6429  139.1585  165.4284 C.3     1  UNL1        0.0576
     13 C         142.9040  138.8206  166.1670 C.3     1  UNL1        0.0165
     14 C         143.0063  139.0903  167.6389 C.3     1  UNL1        0.0125
     15 C         141.9498  139.9676  169.8443 C.2     1  UNL1        0.3164
     16 O         143.2335  139.6924  170.5699 O.2     1  UNL1       -0.2501
     17 O         140.7683  140.5125  170.5909 O.3     1  UNL1       -0.4485
     18 C         140.6289  143.0128  169.8986 C.3     1  UNL1        0.0513
     19 C         140.7229  141.9640  170.9668 C.3     1  UNL1        0.2086
     20 C         142.4272  137.9706  158.0801 C.3     1  UNL1        0.1747
     21 N         143.1648  136.8121  157.4769 N.pl3   1  UNL1       -0.3080
     22 H         144.1235  136.6879  157.6634 H       1  UNL1        0.1487
     23 C         142.4417  135.8427  156.5894 C.ar    1  UNL1        0.1708
     24 N         141.3722  136.1862  155.5955 N.ar    1  UNL1       -0.0621
     25 O         140.9307  134.9154  154.9319 O.2     1  UNL1       -0.3522
     26 C         141.7275  133.7865  155.5158 C.ar    1  UNL1        0.1781
     27 C         141.7232  132.3109  155.2471 C.ar    1  UNL1        0.0402
     28 C         142.6529  131.4083  156.0027 C.ar    1  UNL1        0.0071
     29 C         143.5868  131.9814  157.0271 C.ar    1  UNL1        0.0717
     30 C         143.5910  133.4571  157.2959 C.ar    1  UNL1        0.0099
     31 C         142.6613  134.3597  156.5403 C.ar    1  UNL1        0.0717
     32 C         144.5165  131.0787  157.7828 C.3     1  UNL1        0.4186
     33 F         145.4462  130.1762  158.5384 F       1  UNL1       -0.1659
     34 F         143.3634  130.1870  158.1363 F       1  UNL1       -0.1659
     35 F         145.6696  131.9705  157.4293 F       1  UNL1       -0.1659
@<TRIPOS>BOND
     1    18    19    1
     2    19    17    1
     3    17    15    1
     4    15    16    2
     5     9    15    1
     6     9    10    1
     7    10    11    1
     8    11    12    1
     9    12     5    1
    10     5     6    1
    11     6     7    1
    12     7     1    1
    13     1     2   am
    14     2     3    2
    15     2    20    1
    16    20    21    1
    17    21    23    1
    18    23    24   ar
    19    24    25   ar
    20    25    26   ar
    21    26    27   ar
    22    27    28   ar
    23    28    29   ar
    24    29    32    1
    25    32    33    1
    26    32    34    1
    27    32    35    1
    28    29    30   ar
    29    30    31   ar
    30     7     8    1
    31    12    13    1
    32    13    14    1
    33    14     9    1
    34     8     5    1
    35    31    23   ar
    36    31    26   ar
    37     1     4    1
    38    21    22    1
@<TRIPOS>MOLECULE
*****
 35 38 0 0 0
SMALL
GASTEIGER

@<TRIPOS>ATOM
      1 N         140.3987  138.3795  160.2736 N.am    1  UNL1       -0.3018
      2 C         141.7547  138.3987  159.6327 C.2     1  UNL1        0.2425
      3 O         142.9693  138.7091  160.4563 O.2     1  UNL1       -0.2733
      4 H         139.6016  138.1757  159.7330 H       1  UNL1        0.1495
      5 N         140.0574  139.0826  163.8096 N.3     1  UNL1       -0.2711
      6 C         140.3291  137.8534  162.9940 C.3     1  UNL1        0.0933
      7 C         140.2574  138.6708  161.7382 C.3     1  UNL1        0.1035
      8 C         139.9857  139.8999  162.5539 C.3     1  UNL1        0.0933
      9 C         139.6333  139.9565  168.2035 C.3     1  UNL1        0.0992
     10 C         140.9546  140.1582  167.5229 C.3     1  UNL1        0.0125
     11 C         141.0960  139.8669  166.0582 C.3     1  UNL1        0.0165
     12 C         139.9161  139.3739  165.2742 C.3     1  UNL1        0.0576
     13 C         138.5947  139.1722  165.9549 C.3     1  UNL1        0.0165
     14 C         138.4533  139.4635  167.4195 C.3     1  UNL1        0.0125
     15 C         139.4918  140.2478  169.6681 C.2     1  UNL1        0.3164
     16 O         138.2383  139.8564  170.3930 O.2     1  UNL1       -0.2501
     17 O         140.6039  140.9305  170.4079 O.3     1  UNL1       -0.4485
     18 C         140.3235  143.3103  169.4040 C.3     1  UNL1        0.0513
     19 C         140.5849  142.4201  170.5827 C.3     1  UNL1        0.2086
     20 C         141.8961  138.1074  158.1680 C.3     1  UNL1        0.1747
     21 N         142.9618  137.1661  157.6900 N.pl3   1  UNL1       -0.3080
     22 H         143.8146  137.0995  158.1774 H       1  UNL1        0.1487
     23 C         142.7281  136.3262  156.4693 C.ar    1  UNL1        0.1708
     24 N         142.0505  136.7733  155.2080 N.ar    1  UNL1       -0.0621
     25 O         142.0347  135.6152  154.2548 O.2     1  UNL1       -0.3522
     26 C         142.7024  134.4524  154.9270 C.ar    1  UNL1        0.1781
     27 C         142.9756  133.0502  154.4697 C.ar    1  UNL1        0.0402
     28 C         143.6774  132.0874  155.3810 C.ar    1  UNL1        0.0071
     29 C         144.1060  132.5269  156.7497 C.ar    1  UNL1        0.0717
     30 C         143.8328  133.9291  157.2070 C.ar    1  UNL1        0.0099
     31 C         143.1310  134.8918  156.2957 C.ar    1  UNL1        0.0717
     32 C         144.8078  131.5640  157.6610 C.3     1  UNL1        0.4186
     33 F         145.5095  130.6012  158.5723 F       1  UNL1       -0.1659
     34 F         145.5943  132.6964  158.2518 F       1  UNL1       -0.1659
     35 F         144.0212  130.4316  157.0703 F       1  UNL1       -0.1659
@<TRIPOS>BOND
     1    18    19    1
     2    19    17    1
     3    17    15    1
     4    15    16    2
     5     9    15    1
     6     9    10    1
     7    10    11    1
     8    11    12    1
     9    12     5    1
    10     5     6    1
    11     6     7    1
    12     7     1    1
    13     1     2   am
    14     2     3    2
    15     2    20    1
    16    20    21    1
    17    21    23    1
    18    23    24   ar
    19    24    25   ar
    20    25    26   ar
    21    26    27   ar
    22    27    28   ar
    23    28    29   ar
    24    29    32    1
    25    32    33    1
    26    32    34    1
    27    32    35    1
    28    29    30   ar
    29    30    31   ar
    30     7     8    1
    31    12    13    1
    32    13    14    1
    33    14     9    1
    34     8     5    1
    35    31    23   ar
    36    31    26   ar
    37     1     4    1
    38    21    22    1
@<TRIPOS>MOLECULE
*****
 35 38 0 0 0
SMALL
GASTEIGER

@<TRIPOS>ATOM
      1 N         141.3871  138.3215  161.0255 N.am    1  UNL1       -0.3018
      2 C         142.6932  137.8196  160.4848 C.2     1  UNL1        0.2425
      3 O         143.8644  137.6358  161.4038 O.2     1  UNL1       -0.2733
      4 H         140.6184  138.4422  160.4223 H       1  UNL1        0.1495
      5 N         141.0618  139.0897  164.5494 N.3     1  UNL1       -0.2711
      6 C         141.2725  139.8971  163.3030 C.3     1  UNL1        0.0933
      7 C         141.2524  138.6397  162.4852 C.3     1  UNL1        0.1035
      8 C         141.0416  137.8324  163.7316 C.3     1  UNL1        0.0933
      9 C         140.6574  140.0441  168.9285 C.3     1  UNL1        0.0992
     10 C         139.4444  140.0420  168.0462 C.3     1  UNL1        0.0125
     11 C         139.5791  139.7239  166.5865 C.3     1  UNL1        0.0165
     12 C         140.9270  139.4078  166.0091 C.3     1  UNL1        0.0576
     13 C         142.1401  139.4099  166.8914 C.3     1  UNL1        0.0165
     14 C         142.0053  139.7280  168.3510 C.3     1  UNL1        0.0125
     15 C         140.5228  140.3622  170.3881 C.2     1  UNL1        0.3164
     16 O         139.6170  139.5386  171.2548 O.2     1  UNL1       -0.2501
     17 O         141.2940  141.5040  170.9811 O.3     1  UNL1       -0.4485
     18 C         140.5019  143.6938  169.8290 C.3     1  UNL1        0.0513
     19 C         141.5939  142.7175  170.1519 C.3     1  UNL1        0.2086
     20 C         142.8279  137.5015  159.0252 C.3     1  UNL1        0.1747
     21 N         143.2943  138.5575  158.0673 N.pl3   1  UNL1       -0.3080
     22 H         143.9734  138.3410  157.3882 H       1  UNL1        0.1487
     23 C         142.7259  139.9436  158.1442 C.ar    1  UNL1        0.1708
     24 N         141.7291  140.5416  157.1961 N.ar    1  UNL1       -0.0621
     25 O         141.4417  141.9425  157.6486 O.2     1  UNL1       -0.3522
     26 C         142.2609  142.2103  158.8764 C.ar    1  UNL1        0.1781
     27 C         142.3866  143.4195  159.7550 C.ar    1  UNL1        0.0402
     28 C         143.3059  143.3933  160.9399 C.ar    1  UNL1        0.0071
     29 C         144.0996  142.1578  161.2461 C.ar    1  UNL1        0.0717
     30 C         143.9739  140.9486  160.3675 C.ar    1  UNL1        0.0099
     31 C         143.0545  140.9749  159.1826 C.ar    1  UNL1        0.0717
     32 C         145.0190  142.1316  162.4311 C.3     1  UNL1        0.4186
     33 F         145.9384  142.1055  163.6160 F       1  UNL1       -0.1659
     34 F         145.1415  140.6421  162.3032 F       1  UNL1       -0.1659
     35 F         144.8965  143.6211  162.5590 F       1  UNL1       -0.1659
@<TRIPOS>BOND
     1    18    19    1
     2    19    17    1
     3    17    15    1
     4    15    16    2
     5     9    15    1
     6     9    10    1
     7    10    11    1
     8    11    12    1
     9    12     5    1
    10     5     6    1
    11     6     7    1
    12     7     1    1
    13     1     2   am
    14     2     3    2
    15     2    20    1
    16    20    21    1
    17    21    23    1
    18    23    24   ar
    19    24    25   ar
    20    25    26   ar
    21    26    27   ar
    22    27    28   ar
    23    28    29   ar
    24    29    32    1
    25    32    33    1
    26    32    34    1
    27    32    35    1
    28    29    30   ar
    29    30    31   ar
    30     7     8    1
    31    12    13    1
    32    13    14    1
    33    14     9    1
    34     8     5    1
    35    31    23   ar
    36    31    26   ar
    37     1     4    1
    38    21    22    1
@<TRIPOS>MOLECULE
*****
 35 38 0 0 0
SMALL
GASTEIGER

@<TRIPOS>ATOM
      1 N         141.8405  138.1316  160.8130 N.am    1  UNL1       -0.3018
      2 C         142.8631  138.2745  159.7250 C.2     1  UNL1        0.2425
      3 O         144.0947  139.0988  159.9568 O.2     1  UNL1       -0.2733
      4 H         141.0322  137.5905  160.6608 H       1  UNL1        0.1495
      5 N         142.3450  139.7767  163.9994 N.3     1  UNL1       -0.2711
      6 C         142.9810  138.6168  163.2921 C.3     1  UNL1        0.0933
      7 C         142.0494  138.8130  162.1328 C.3     1  UNL1        0.1035
      8 C         141.4135  139.9728  162.8402 C.3     1  UNL1        0.0933
      9 C         142.9718  141.8210  167.9589 C.3     1  UNL1        0.0992
     10 C         142.5123  140.3938  167.9162 C.3     1  UNL1        0.0125
     11 C         142.3034  139.7123  166.5963 C.3     1  UNL1        0.0165
     12 C         142.5540  140.4581  165.3192 C.3     1  UNL1        0.0576
     13 C         143.0135  141.8853  165.3620 C.3     1  UNL1        0.0165
     14 C         143.2224  142.5668  166.6817 C.3     1  UNL1        0.0125
     15 C         143.1808  142.5025  169.2787 C.2     1  UNL1        0.3164
     16 O         144.5625  142.6237  169.8498 O.2     1  UNL1       -0.2501
     17 O         142.0080  143.0630  170.0273 O.3     1  UNL1       -0.4485
     18 C         139.7662  141.7518  170.0999 C.3     1  UNL1        0.0513
     19 C         141.0645  142.1415  170.7421 C.3     1  UNL1        0.2086
     20 C         142.6542  137.5931  158.4052 C.3     1  UNL1        0.1747
     21 N         143.3921  138.0704  157.1895 N.pl3   1  UNL1       -0.3080
     22 H         144.1435  138.6993  157.2851 H       1  UNL1        0.1487
     23 C         142.9852  137.5894  155.8282 C.ar    1  UNL1        0.1708
     24 N         142.7485  138.4507  154.6231 N.ar    1  UNL1       -0.0621
     25 O         142.3606  137.5563  153.4832 O.2     1  UNL1       -0.3522
     26 C         142.3575  136.1422  153.9837 C.ar    1  UNL1        0.1781
     27 C         142.0531  134.8387  153.3070 C.ar    1  UNL1        0.0402
     28 C         142.1346  133.5556  154.0796 C.ar    1  UNL1        0.0071
     29 C         142.5207  133.5761  155.5290 C.ar    1  UNL1        0.0717
     30 C         142.8251  134.8797  156.2057 C.ar    1  UNL1        0.0099
     31 C         142.7435  136.1627  155.4330 C.ar    1  UNL1        0.0717
     32 C         142.6022  132.2929  156.3016 C.3     1  UNL1        0.4186
     33 F         142.6838  131.0098  157.0741 F       1  UNL1       -0.1659
     34 F         142.9111  133.0644  157.5503 F       1  UNL1       -0.1659
     35 F         142.2934  131.5214  155.0529 F       1  UNL1       -0.1659
@<TRIPOS>BOND
     1    18    19    1
     2    19    17    1
     3    17    15    1
     4    15    16    2
     5     9    15    1
     6     9    10    1
     7    10    11    1
     8    11    12    1
     9    12     5    1
    10     5     6    1
    11     6     7    1
    12     7     1    1
    13     1     2   am
    14     2     3    2
    15     2    20    1
    16    20    21    1
    17    21    23    1
    18    23    24   ar
    19    24    25   ar
    20    25    26   ar
    21    26    27   ar
    22    27    28   ar
    23    28    29   ar
    24    29    32    1
    25    32    33    1
    26    32    34    1
    27    32    35    1
    28    29    30   ar
    29    30    31   ar
    30     7     8    1
    31    12    13    1
    32    13    14    1
    33    14     9    1
    34     8     5    1
    35    31    23   ar
    36    31    26   ar
    37     1     4    1
    38    21    22    1
@<TRIPOS>MOLECULE
*****
 35 38 0 0 0
SMALL
GASTEIGER

@<TRIPOS>ATOM
      1 N         139.8051  138.6108  160.0956 N.am    1  UNL1       -0.3018
      2 C         141.1279  138.7424  159.4007 C.2     1  UNL1        0.2425
      3 O         142.3490  139.1320  160.1800 O.2     1  UNL1       -0.2733
      4 H         139.0037  138.3551  159.5842 H       1  UNL1        0.1495
      5 N         139.5597  139.2336  163.6545 N.3     1  UNL1       -0.2711
      6 C         140.1250  138.1327  162.8070 C.3     1  UNL1        0.0933
      7 C         139.7034  138.8688  161.5697 C.3     1  UNL1        0.1035
      8 C         139.1381  139.9696  162.4174 C.3     1  UNL1        0.0933
      9 C         139.2546  140.0077  168.0770 C.3     1  UNL1        0.0992
     10 C         138.2094  139.1831  167.3861 C.3     1  UNL1        0.0125
     11 C         138.3111  138.9250  165.9119 C.3     1  UNL1        0.0165
     12 C         139.4580  139.4917  165.1287 C.3     1  UNL1        0.0576
     13 C         140.5032  140.3164  165.8196 C.3     1  UNL1        0.0165
     14 C         140.4016  140.5744  167.2936 C.3     1  UNL1        0.0125
     15 C         139.1530  140.2658  169.5510 C.2     1  UNL1        0.3164
     16 O         137.9634  139.7710  170.3190 O.2     1  UNL1       -0.2501
     17 O         140.2413  141.0189  170.2573 O.3     1  UNL1       -0.4485
     18 C         140.4010  143.5060  169.5234 C.3     1  UNL1        0.0513
     19 C         140.0678  142.4772  170.5628 C.3     1  UNL1        0.2086
     20 C         141.2296  138.4843  157.9266 C.3     1  UNL1        0.1747
     21 N         141.7137  137.1543  157.4296 N.pl3   1  UNL1       -0.3080
     22 H         142.2830  136.5920  158.0032 H       1  UNL1        0.1487
     23 C         141.3305  136.6812  156.0587 C.ar    1  UNL1        0.1708
     24 N         140.6058  137.4842  155.0195 N.ar    1  UNL1       -0.0621
     25 O         140.4322  136.6212  153.8049 O.2     1  UNL1       -0.3522
     26 C         141.0496  135.2850  154.0935 C.ar    1  UNL1        0.1781
     27 C         141.1780  134.0393  153.2678 C.ar    1  UNL1        0.0402
     28 C         141.8616  132.8307  153.8352 C.ar    1  UNL1        0.0071
     29 C         142.4168  132.8678  155.2281 C.ar    1  UNL1        0.0717
     30 C         142.2885  134.1135  156.0538 C.ar    1  UNL1        0.0099
     31 C         141.6048  135.3221  155.4864 C.ar    1  UNL1        0.0717
     32 C         143.1005  131.6591  155.7954 C.3     1  UNL1        0.4186
     33 F         143.7841  130.4505  156.3627 F       1  UNL1       -0.1659
     34 F         141.8888  130.8298  155.4888 F       1  UNL1       -0.1659
     35 F         144.3122  132.4884  156.1021 F       1  UNL1       -0.1659
@<TRIPOS>BOND
     1    18    19    1
     2    19    17    1
     3    17    15    1
     4    15    16    2
     5     9    15    1
     6     9    10    1
     7    10    11    1
     8    11    12    1
     9    12     5    1
    10     5     6    1
    11     6     7    1
    12     7     1    1
    13     1     2   am
    14     2     3    2
    15     2    20    1
    16    20    21    1
    17    21    23    1
    18    23    24   ar
    19    24    25   ar
    20    25    26   ar
    21    26    27   ar
    22    27    28   ar
    23    28    29   ar
    24    29    32    1
    25    32    33    1
    26    32    34    1
    27    32    35    1
    28    29    30   ar
    29    30    31   ar
    30     7     8    1
    31    12    13    1
    32    13    14    1
    33    14     9    1
    34     8     5    1
    35    31    23   ar
    36    31    26   ar
    37     1     4    1
    38    21    22    1
@<TRIPOS>MOLECULE
*****
 35 38 0 0 0
SMALL
GASTEIGER

@<TRIPOS>ATOM
      1 N         139.4193  140.1542  161.2702 N.am    1  UNL1       -0.3018
      2 C         139.5990  138.7506  160.7725 C.2     1  UNL1        0.2425
      3 O         139.9139  137.6469  161.7383 O.2     1  UNL1       -0.2733
      4 H         139.2127  140.8786  160.6363 H       1  UNL1        0.1495
      5 N         139.7458  140.8782  164.8034 N.3     1  UNL1       -0.2711
      6 C         138.6138  140.8860  163.8192 C.3     1  UNL1        0.0933
      7 C         139.5546  140.4541  162.7336 C.3     1  UNL1        0.1035
      8 C         140.6865  140.4462  163.7178 C.3     1  UNL1        0.0933
      9 C         140.1515  141.7778  169.1938 C.3     1  UNL1        0.0992
     10 C         139.6127  140.4512  168.7467 C.3     1  UNL1        0.0125
     11 C         139.4774  140.1513  167.2832 C.3     1  UNL1        0.0165
     12 C         139.8810  141.1780  166.2668 C.3     1  UNL1        0.0576
     13 C         140.4199  142.5046  166.7140 C.3     1  UNL1        0.0165
     14 C         140.5551  142.8044  168.1773 C.3     1  UNL1        0.0125
     15 C         140.2868  142.0777  170.6572 C.2     1  UNL1        0.3164
     16 O         139.3366  143.0317  171.3184 O.2     1  UNL1       -0.2501
     17 O         141.3724  141.4237  171.4596 O.3     1  UNL1       -0.4485
     18 C         143.5339  141.5852  170.0271 C.3     1  UNL1        0.0513
     19 C         142.5223  140.7579  170.7635 C.3     1  UNL1        0.2086
     20 C         139.4637  138.4508  159.3090 C.3     1  UNL1        0.1747
     21 N         140.6876  138.3531  158.4472 N.pl3   1  UNL1       -0.3080
     22 H         140.6510  137.8634  157.5939 H       1  UNL1        0.1487
     23 C         141.9672  139.0017  158.8854 C.ar    1  UNL1        0.1708
     24 N         143.2141  138.2886  159.3176 N.ar    1  UNL1       -0.0621
     25 O         144.2420  139.3234  159.6677 O.2     1  UNL1       -0.3522
     26 C         143.6304  140.6760  159.4519 C.ar    1  UNL1        0.1781
     27 C         144.1721  142.0630  159.6332 C.ar    1  UNL1        0.0402
     28 C         143.3078  143.2510  159.3310 C.ar    1  UNL1        0.0071
     29 C         141.9018  143.0522  158.8475 C.ar    1  UNL1        0.0717
     30 C         141.3602  141.6652  158.6662 C.ar    1  UNL1        0.0099
     31 C         142.2245  140.4771  158.9684 C.ar    1  UNL1        0.0717
     32 C         141.0375  144.2403  158.5453 C.3     1  UNL1        0.4186
     33 F         140.1732  145.4285  158.2431 F       1  UNL1       -0.1659
     34 F         140.9436  143.8076  157.1121 F       1  UNL1       -0.1659
     35 F         141.1314  144.6731  159.9784 F       1  UNL1       -0.1659
@<TRIPOS>BOND
     1    18    19    1
     2    19    17    1
     3    17    15    1
     4    15    16    2
     5     9    15    1
     6     9    10    1
     7    10    11    1
     8    11    12    1
     9    12     5    1
    10     5     6    1
    11     6     7    1
    12     7     1    1
    13     1     2   am
    14     2     3    2
    15     2    20    1
    16    20    21    1
    17    21    23    1
    18    23    24   ar
    19    24    25   ar
    20    25    26   ar
    21    26    27   ar
    22    27    28   ar
    23    28    29   ar
    24    29    32    1
    25    32    33    1
    26    32    34    1
    27    32    35    1
    28    29    30   ar
    29    30    31   ar
    30     7     8    1
    31    12    13    1
    32    13    14    1
    33    14     9    1
    34     8     5    1
    35    31    23   ar
    36    31    26   ar
    37     1     4    1
    38    21    22    1
@<TRIPOS>MOLECULE
*****
 35 38 0 0 0
SMALL
GASTEIGER

@<TRIPOS>ATOM
      1 N         141.5206  140.2424  162.7203 N.am    1  UNL1       -0.3018
      2 C         140.8296  140.1943  161.3899 C.2     1  UNL1        0.2425
      3 O         139.3633  139.8864  161.3170 O.2     1  UNL1       -0.2733
      4 H         142.4830  140.4445  162.7681 H       1  UNL1        0.1495
      5 N         139.6489  139.6153  165.7564 N.3     1  UNL1       -0.2711
      6 C         140.0933  138.7797  164.5926 C.3     1  UNL1        0.0933
      7 C         140.7453  139.9827  163.9779 C.3     1  UNL1        0.1035
      8 C         140.3009  140.8182  165.1416 C.3     1  UNL1        0.0933
      9 C         137.3230  138.8362  169.5291 C.3     1  UNL1        0.0992
     10 C         138.5213  139.7380  169.5595 C.3     1  UNL1        0.0125
     11 C         139.2966  139.9977  168.3019 C.3     1  UNL1        0.0165
     12 C         138.8736  139.3556  167.0139 C.3     1  UNL1        0.0576
     13 C         137.6753  138.4538  166.9836 C.3     1  UNL1        0.0165
     14 C         136.9001  138.1941  168.2411 C.3     1  UNL1        0.0125
     15 C         136.5477  138.5765  170.7866 C.2     1  UNL1        0.3164
     16 O         135.9596  139.7223  171.5554 O.2     1  UNL1       -0.2501
     17 O         136.3605  137.1707  171.2753 O.3     1  UNL1       -0.4485
     18 C         135.3027  136.7243  173.6060 C.3     1  UNL1        0.0513
     19 C         136.5159  136.8567  172.7339 C.3     1  UNL1        0.2086
     20 C         141.6048  140.4540  160.1323 C.3     1  UNL1        0.1747
     21 N         141.6009  141.8224  159.5178 N.pl3   1  UNL1       -0.3080
     22 H         142.0582  141.9782  158.6600 H       1  UNL1        0.1487
     23 C         140.9001  142.9535  160.2104 C.ar    1  UNL1        0.1708
     24 N         139.6196  143.5990  159.7701 N.ar    1  UNL1       -0.0621
     25 O         139.2849  144.6820  160.7524 O.2     1  UNL1       -0.3522
     26 C         140.3585  144.7059  161.7998 C.ar    1  UNL1        0.1781
     27 C         140.5561  145.5625  163.0152 C.ar    1  UNL1        0.0402
     28 C         141.7519  145.3507  163.8956 C.ar    1  UNL1        0.0071
     29 C         142.7501  144.2823  163.5606 C.ar    1  UNL1        0.0717
     30 C         142.5525  143.4258  162.3451 C.ar    1  UNL1        0.0099
     31 C         141.3567  143.6376  161.4647 C.ar    1  UNL1        0.0717
     32 C         143.9460  144.0706  164.4410 C.3     1  UNL1        0.4186
     33 F         145.1417  143.8589  165.3215 F       1  UNL1       -0.1659
     34 F         143.8802  142.5957  164.1757 F       1  UNL1       -0.1659
     35 F         144.0117  145.5454  164.7063 F       1  UNL1       -0.1659
@<TRIPOS>BOND
     1    18    19    1
     2    19    17    1
     3    17    15    1
     4    15    16    2
     5     9    15    1
     6     9    10    1
     7    10    11    1
     8    11    12    1
     9    12     5    1
    10     5     6    1
    11     6     7    1
    12     7     1    1
    13     1     2   am
    14     2     3    2
    15     2    20    1
    16    20    21    1
    17    21    23    1
    18    23    24   ar
    19    24    25   ar
    20    25    26   ar
    21    26    27   ar
    22    27    28   ar
    23    28    29   ar
    24    29    32    1
    25    32    33    1
    26    32    34    1
    27    32    35    1
    28    29    30   ar
    29    30    31   ar
    30     7     8    1
    31    12    13    1
    32    13    14    1
    33    14     9    1
    34     8     5    1
    35    31    23   ar
    36    31    26   ar
    37     1     4    1
    38    21    22    1
@<TRIPOS>MOLECULE
*****
 35 38 0 0 0
SMALL
GASTEIGER

@<TRIPOS>ATOM
      1 N         143.1558  139.6414  157.7267 N.am    1  UNL1       -0.3018
      2 C         143.7283  139.9593  159.0761 C.2     1  UNL1        0.2425
      3 O         144.0866  138.8493  160.0193 O.2     1  UNL1       -0.2733
      4 H         142.9207  140.3699  157.1076 H       1  UNL1        0.1495
      5 N         142.6389  136.1940  156.7456 N.3     1  UNL1       -0.2711
      6 C         143.4603  137.3342  156.2211 C.3     1  UNL1        0.0933
      7 C         142.9417  138.2134  157.3203 C.3     1  UNL1        0.1035
      8 C         142.1203  137.0732  157.8448 C.3     1  UNL1        0.0933
      9 C         141.9964  131.9101  155.5267 C.3     1  UNL1        0.0992
     10 C         142.9374  132.2378  156.6479 C.3     1  UNL1        0.0125
     11 C         143.1516  133.6658  157.0542 C.3     1  UNL1        0.0165
     12 C         142.4247  134.7660  156.3393 C.3     1  UNL1        0.0576
     13 C         141.4837  134.4384  155.2181 C.3     1  UNL1        0.0165
     14 C         141.2696  133.0105  154.8118 C.3     1  UNL1        0.0125
     15 C         141.7822  130.4823  155.1203 C.2     1  UNL1        0.3164
     16 O         140.3982  129.9870  154.8213 O.2     1  UNL1       -0.2501
     17 O         142.9520  129.5495  155.0129 O.3     1  UNL1       -0.4485
     18 C         143.7042  130.6075  152.7624 C.3     1  UNL1        0.0513
     19 C         143.7273  129.4630  153.7317 C.3     1  UNL1        0.2086
     20 C         143.9425  141.3873  159.4825 C.3     1  UNL1        0.1747
     21 N         143.4914  141.8584  160.8333 N.pl3   1  UNL1       -0.3080
     22 H         142.7644  142.5182  160.9071 H       1  UNL1        0.1487
     23 C         144.1481  141.3243  162.0717 C.ar    1  UNL1        0.1708
     24 N         145.5197  141.6782  162.5650 N.ar    1  UNL1       -0.0621
     25 O         145.7677  140.9151  163.8323 O.2     1  UNL1       -0.3522
     26 C         144.5494  140.0896  164.1223 C.ar    1  UNL1        0.1781
     27 C         144.2221  139.1403  165.2366 C.ar    1  UNL1        0.0402
     28 C         142.8939  138.4438  165.2627 C.ar    1  UNL1        0.0071
     29 C         141.8929  138.6967  164.1746 C.ar    1  UNL1        0.0717
     30 C         142.2201  139.6460  163.0603 C.ar    1  UNL1        0.0099
     31 C         143.5484  140.3424  163.0341 C.ar    1  UNL1        0.0717
     32 C         140.5646  138.0002  164.2007 C.3     1  UNL1        0.4186
     33 F         139.2364  137.3037  164.2269 F       1  UNL1       -0.1659
     34 F         139.8687  139.3285  164.2340 F       1  UNL1       -0.1659
     35 F         141.2606  136.6718  164.1675 F       1  UNL1       -0.1659
@<TRIPOS>BOND
     1    18    19    1
     2    19    17    1
     3    17    15    1
     4    15    16    2
     5     9    15    1
     6     9    10    1
     7    10    11    1
     8    11    12    1
     9    12     5    1
    10     5     6    1
    11     6     7    1
    12     7     1    1
    13     1     2   am
    14     2     3    2
    15     2    20    1
    16    20    21    1
    17    21    23    1
    18    23    24   ar
    19    24    25   ar
    20    25    26   ar
    21    26    27   ar
    22    27    28   ar
    23    28    29   ar
    24    29    32    1
    25    32    33    1
    26    32    34    1
    27    32    35    1
    28    29    30   ar
    29    30    31   ar
    30     7     8    1
    31    12    13    1
    32    13    14    1
    33    14     9    1
    34     8     5    1
    35    31    23   ar
    36    31    26   ar
    37     1     4    1
    38    21    22    1
