@<TRIPOS>MOLECULE
*****
 22 24 0 0 0
SMALL
GASTEIGER

@<TRIPOS>ATOM
      1 C         141.5119  139.7720  166.4155 C.2     1  UNL1        0.2494
      2 O         142.4911  139.4872  167.5155 O.2     1  UNL1       -0.2699
      3 N         140.3889  140.7400  166.6431 N.am    1  UNL1       -0.2779
      4 C         142.5015  139.7068  164.0142 C.ar    1  UNL1        0.0296
      5 C         142.6453  139.0236  162.6865 C.ar    1  UNL1        0.0063
      6 C         141.9434  137.7226  162.4326 C.ar    1  UNL1        0.0005
      7 C         141.0976  137.1047  163.5063 C.ar    1  UNL1        0.0002
      8 C         140.9538  137.7878  164.8339 C.ar    1  UNL1        0.0050
      9 C         141.6557  139.0888  165.0879 C.ar    1  UNL1        0.0592
     10 C         144.7007  141.0491  164.3479 C.3     1  UNL1        0.0742
     11 S         143.2034  141.0079  164.2681 S.3     1  UNL1       -0.1126
     12 C         139.4096  141.0248  165.5430 C.3     1  UNL1        0.0926
     13 C         139.4822  142.1653  164.5715 C.3     1  UNL1        0.0383
     14 C         138.3034  142.0645  163.6494 C.3     1  UNL1        0.0704
     15 N         137.5022  140.8616  164.0511 N.3     1  UNL1       -0.2960
     16 C         138.1860  140.2191  165.2214 C.3     1  UNL1        0.0887
     17 H         137.4538  140.2027  163.2740 H       1  UNL1        0.1233
     18 C         140.2450  141.4232  167.9707 C.3     1  UNL1        0.0756
     19 C         140.6561  142.8306  168.2871 C.3     1  UNL1        0.0198
     20 C         140.3300  143.0962  169.7269 C.3     1  UNL1        0.0018
     21 C         139.7173  141.8528  170.3005 C.3     1  UNL1        0.0018
     22 C         139.6649  140.8189  169.2150 C.3     1  UNL1        0.0198
@<TRIPOS>BOND
     1    10    11    1
     2    11     4    1
     3     4     5   ar
     4     5     6   ar
     5     6     7   ar
     6     7     8   ar
     7     8     9   ar
     8     9     1    1
     9     1     2    2
    10     1     3   am
    11     3    18    1
    12    18    19    1
    13    19    20    1
    14    20    21    1
    15    21    22    1
    16    12     3    1
    17    12    13    1
    18    13    14    1
    19    14    15    1
    20    15    16    1
    21     9     4   ar
    22    22    18    1
    23    16    12    1
    24    15    17    1
@<TRIPOS>MOLECULE
*****
 22 24 0 0 0
SMALL
GASTEIGER

@<TRIPOS>ATOM
      1 C         142.8090  139.1479  166.3678 C.2     1  UNL1        0.2494
      2 O         143.6883  138.3865  167.3148 O.2     1  UNL1       -0.2699
      3 N         142.1952  140.4482  166.7953 N.am    1  UNL1       -0.2779
      4 C         143.4882  138.9197  163.8705 C.ar    1  UNL1        0.0296
      5 C         143.2225  138.3810  162.4960 C.ar    1  UNL1        0.0063
      6 C         142.0120  137.5318  162.2444 C.ar    1  UNL1        0.0005
      7 C         141.0671  137.2213  163.3672 C.ar    1  UNL1        0.0002
      8 C         141.3327  137.7600  164.7417 C.ar    1  UNL1        0.0050
      9 C         142.5433  138.6092  164.9933 C.ar    1  UNL1        0.0592
     10 C         145.0364  140.8903  163.1847 C.3     1  UNL1        0.0742
     11 S         144.6987  139.7690  164.1222 S.3     1  UNL1       -0.1126
     12 C         141.3158  141.2096  165.8483 C.3     1  UNL1        0.0926
     13 C         139.8233  141.0985  165.7483 C.3     1  UNL1        0.0383
     14 C         139.3596  142.0361  164.6732 C.3     1  UNL1        0.0704
     15 N         140.5656  142.7268  164.1086 N.3     1  UNL1       -0.2960
     16 C         141.7745  142.2160  164.8349 C.3     1  UNL1        0.0887
     17 H         140.4816  143.7345  164.2423 H       1  UNL1        0.1233
     18 C         142.4609  140.9869  168.1697 C.3     1  UNL1        0.0756
     19 C         143.2797  142.2000  168.4981 C.3     1  UNL1        0.0198
     20 C         143.2792  142.3700  169.9885 C.3     1  UNL1        0.0018
     21 C         142.4601  141.2620  170.5812 C.3     1  UNL1        0.0018
     22 C         141.9543  140.4072  169.4571 C.3     1  UNL1        0.0198
@<TRIPOS>BOND
     1    10    11    1
     2    11     4    1
     3     4     5   ar
     4     5     6   ar
     5     6     7   ar
     6     7     8   ar
     7     8     9   ar
     8     9     1    1
     9     1     2    2
    10     1     3   am
    11     3    18    1
    12    18    19    1
    13    19    20    1
    14    20    21    1
    15    21    22    1
    16    12     3    1
    17    12    13    1
    18    13    14    1
    19    14    15    1
    20    15    16    1
    21     9     4   ar
    22    22    18    1
    23    16    12    1
    24    15    17    1
@<TRIPOS>MOLECULE
*****
 22 24 0 0 0
SMALL
GASTEIGER

@<TRIPOS>ATOM
      1 C         140.1564  139.7424  166.6376 C.2     1  UNL1        0.2494
      2 O         139.2989  139.8248  167.8655 O.2     1  UNL1       -0.2699
      3 N         141.6248  140.0355  166.7271 N.am    1  UNL1       -0.2779
      4 C         138.8978  140.4172  164.4671 C.ar    1  UNL1        0.0296
      5 C         138.2870  140.0418  163.1496 C.ar    1  UNL1        0.0063
      6 C         138.3239  138.6161  162.6849 C.ar    1  UNL1        0.0005
      7 C         138.9717  137.5658  163.5378 C.ar    1  UNL1        0.0002
      8 C         139.5825  137.9412  164.8553 C.ar    1  UNL1        0.0050
      9 C         139.5456  139.3669  165.3200 C.ar    1  UNL1        0.0592
     10 C         137.8195  142.7799  164.3956 C.3     1  UNL1        0.0742
     11 S         138.8609  141.8430  164.9319 S.3     1  UNL1       -0.1126
     12 C         142.4823  139.9531  165.4991 C.3     1  UNL1        0.0926
     13 C         143.2586  138.7528  165.0447 C.3     1  UNL1        0.0383
     14 C         143.9701  139.1145  163.7747 C.3     1  UNL1        0.0704
     15 N         143.6335  140.5384  163.4441 N.3     1  UNL1       -0.2960
     16 C         142.7140  141.0567  164.5099 C.3     1  UNL1        0.0887
     17 H         143.1709  140.5829  162.5362 H       1  UNL1        0.1233
     18 C         142.2356  140.4110  168.0446 C.3     1  UNL1        0.0756
     19 C         142.8093  141.7504  168.4007 C.3     1  UNL1        0.0198
     20 C         143.3083  141.6802  169.8135 C.3     1  UNL1        0.0018
     21 C         143.0430  140.2973  170.3307 C.3     1  UNL1        0.0018
     22 C         142.3801  139.5129  169.2374 C.3     1  UNL1        0.0198
@<TRIPOS>BOND
     1    10    11    1
     2    11     4    1
     3     4     5   ar
     4     5     6   ar
     5     6     7   ar
     6     7     8   ar
     7     8     9   ar
     8     9     1    1
     9     1     2    2
    10     1     3   am
    11     3    18    1
    12    18    19    1
    13    19    20    1
    14    20    21    1
    15    21    22    1
    16    12     3    1
    17    12    13    1
    18    13    14    1
    19    14    15    1
    20    15    16    1
    21     9     4   ar
    22    22    18    1
    23    16    12    1
    24    15    17    1
@<TRIPOS>MOLECULE
*****
 22 24 0 0 0
SMALL
GASTEIGER

@<TRIPOS>ATOM
      1 C         142.1718  142.6090  166.1076 C.2     1  UNL1        0.2494
      2 O         143.2564  142.2728  167.0876 O.2     1  UNL1       -0.2699
      3 N         140.7423  142.6600  166.5591 N.am    1  UNL1       -0.2779
      4 C         142.6007  141.7700  163.6863 C.ar    1  UNL1        0.0296
      5 C         142.9455  142.0551  162.2547 C.ar    1  UNL1        0.0063
      6 C         143.2064  143.4645  161.8125 C.ar    1  UNL1        0.0005
      7 C         143.1224  144.5887  162.8020 C.ar    1  UNL1        0.0002
      8 C         142.7776  144.3036  164.2336 C.ar    1  UNL1        0.0050
      9 C         142.5167  142.8942  164.6758 C.ar    1  UNL1        0.0592
     10 C         143.4867  139.4613  164.4831 C.3     1  UNL1        0.0742
     11 S         142.3397  140.3606  164.1286 S.3     1  UNL1       -0.1126
     12 C         139.6577  142.9962  165.5790 C.3     1  UNL1        0.0926
     13 C         139.1578  144.3728  165.2550 C.3     1  UNL1        0.0383
     14 C         138.0737  144.2422  164.2265 C.3     1  UNL1        0.0704
     15 N         137.9036  142.7847  163.9148 N.3     1  UNL1       -0.2960
     16 C         138.8826  142.0147  164.7507 C.3     1  UNL1        0.0887
     17 H         138.0874  142.6186  162.9254 H       1  UNL1        0.1233
     18 C         140.3974  142.3748  167.9908 C.3     1  UNL1        0.0756
     19 C         140.4085  143.3677  169.1150 C.3     1  UNL1        0.0198
     20 C         139.9988  142.6532  170.3686 C.3     1  UNL1        0.0018
     21 C         139.7344  141.2186  170.0192 C.3     1  UNL1        0.0018
     22 C         139.9807  141.0466  168.5496 C.3     1  UNL1        0.0198
@<TRIPOS>BOND
     1    10    11    1
     2    11     4    1
     3     4     5   ar
     4     5     6   ar
     5     6     7   ar
     6     7     8   ar
     7     8     9   ar
     8     9     1    1
     9     1     2    2
    10     1     3   am
    11     3    18    1
    12    18    19    1
    13    19    20    1
    14    20    21    1
    15    21    22    1
    16    12     3    1
    17    12    13    1
    18    13    14    1
    19    14    15    1
    20    15    16    1
    21     9     4   ar
    22    22    18    1
    23    16    12    1
    24    15    17    1
@<TRIPOS>MOLECULE
*****
 22 24 0 0 0
SMALL
GASTEIGER

@<TRIPOS>ATOM
      1 C         138.7306  139.7634  166.1323 C.2     1  UNL1        0.2494
      2 O         137.8820  138.8521  166.9686 O.2     1  UNL1       -0.2699
      3 N         139.9272  140.4373  166.7357 N.am    1  UNL1       -0.2779
      4 C         138.7277  138.9711  163.6580 C.ar    1  UNL1        0.0296
      5 C         138.3798  139.2084  162.2184 C.ar    1  UNL1        0.0063
      6 C         137.6868  140.4755  161.8134 C.ar    1  UNL1        0.0005
      7 C         137.3417  141.5053  162.8480 C.ar    1  UNL1        0.0002
      8 C         137.6896  141.2680  164.2876 C.ar    1  UNL1        0.0050
      9 C         138.3826  140.0008  164.6926 C.ar    1  UNL1        0.0592
     10 C         140.7970  137.4039  163.5473 C.3     1  UNL1        0.0742
     11 S         139.4208  137.7039  164.0631 S.3     1  UNL1       -0.1126
     12 C         140.7758  141.3487  165.8993 C.3     1  UNL1        0.0926
     13 C         140.6552  142.8418  165.8226 C.3     1  UNL1        0.0383
     14 C         141.6988  143.3428  164.8688 C.3     1  UNL1        0.0704
     15 N         142.4645  142.1592  164.3559 N.3     1  UNL1       -0.2960
     16 C         141.8940  140.9268  164.9929 C.3     1  UNL1        0.0887
     17 H         143.4501  142.2514  164.6020 H       1  UNL1        0.1233
     18 C         140.2751  140.2000  168.1753 C.3     1  UNL1        0.0756
     19 C         141.5819  139.6747  168.6914 C.3     1  UNL1        0.0198
     20 C         141.4919  139.5963  170.1866 C.3     1  UNL1        0.0018
     21 C         140.1294  140.0731  170.5947 C.3     1  UNL1        0.0018
     22 C         139.3775  140.4462  169.3515 C.3     1  UNL1        0.0198
@<TRIPOS>BOND
     1    10    11    1
     2    11     4    1
     3     4     5   ar
     4     5     6   ar
     5     6     7   ar
     6     7     8   ar
     7     8     9   ar
     8     9     1    1
     9     1     2    2
    10     1     3   am
    11     3    18    1
    12    18    19    1
    13    19    20    1
    14    20    21    1
    15    21    22    1
    16    12     3    1
    17    12    13    1
    18    13    14    1
    19    14    15    1
    20    15    16    1
    21     9     4   ar
    22    22    18    1
    23    16    12    1
    24    15    17    1
@<TRIPOS>MOLECULE
*****
 22 24 0 0 0
SMALL
GASTEIGER

@<TRIPOS>ATOM
      1 C         141.1852  141.3361  164.7171 C.2     1  UNL1        0.2494
      2 O         141.9151  140.6144  165.8110 O.2     1  UNL1       -0.2699
      3 N         139.8272  140.8675  164.2857 N.am    1  UNL1       -0.2779
      4 C         142.7613  142.3332  162.9083 C.ar    1  UNL1        0.0296
      5 C         143.3895  143.5233  162.2459 C.ar    1  UNL1        0.0063
      6 C         143.0698  144.9066  162.7299 C.ar    1  UNL1        0.0005
      7 C         142.1219  145.0998  163.8762 C.ar    1  UNL1        0.0002
      8 C         141.4937  143.9096  164.5387 C.ar    1  UNL1        0.0050
      9 C         141.8134  142.5263  164.0547 C.ar    1  UNL1        0.0592
     10 C         144.3331  140.2646  162.8857 C.3     1  UNL1        0.0742
     11 S         143.0810  140.9498  162.4244 S.3     1  UNL1       -0.1126
     12 C         139.0973  141.5892  163.1918 C.3     1  UNL1        0.0926
     13 C         139.2958  141.3894  161.7185 C.3     1  UNL1        0.0383
     14 C         138.3620  142.3141  160.9953 C.3     1  UNL1        0.0704
     15 N         137.5864  143.0855  162.0217 N.3     1  UNL1       -0.2960
     16 C         138.0408  142.6374  163.3792 C.3     1  UNL1        0.0887
     17 H         136.5891  142.9014  161.9123 H       1  UNL1        0.1233
     18 C         139.1990  139.6773  164.9480 C.3     1  UNL1        0.0756
     19 C         139.3592  138.2468  164.5261 C.3     1  UNL1        0.0198
     20 C         138.5595  137.3940  165.4659 C.3     1  UNL1        0.0018
     21 C         137.9050  138.2975  166.4687 C.3     1  UNL1        0.0018
     22 C         138.3002  139.7086  166.1486 C.3     1  UNL1        0.0198
@<TRIPOS>BOND
     1    10    11    1
     2    11     4    1
     3     4     5   ar
     4     5     6   ar
     5     6     7   ar
     6     7     8   ar
     7     8     9   ar
     8     9     1    1
     9     1     2    2
    10     1     3   am
    11     3    18    1
    12    18    19    1
    13    19    20    1
    14    20    21    1
    15    21    22    1
    16    12     3    1
    17    12    13    1
    18    13    14    1
    19    14    15    1
    20    15    16    1
    21     9     4   ar
    22    22    18    1
    23    16    12    1
    24    15    17    1
@<TRIPOS>MOLECULE
*****
 22 24 0 0 0
SMALL
GASTEIGER

@<TRIPOS>ATOM
      1 C         142.1109  139.7170  165.2931 C.2     1  UNL1        0.2494
      2 O         142.4381  138.7114  166.3569 O.2     1  UNL1       -0.2699
      3 N         140.6857  139.9330  164.8782 N.am    1  UNL1       -0.2779
      4 C         143.8715  139.9890  163.4020 C.ar    1  UNL1        0.0296
      5 C         144.9695  140.7786  162.7531 C.ar    1  UNL1        0.0063
      6 C         145.4047  142.0857  163.3464 C.ar    1  UNL1        0.0005
      7 C         144.7421  142.6032  164.5886 C.ar    1  UNL1        0.0002
      8 C         143.6442  141.8137  165.2375 C.ar    1  UNL1        0.0050
      9 C         143.2089  140.5066  164.6442 C.ar    1  UNL1        0.0592
     10 C         143.9316  138.2712  161.4538 C.3     1  UNL1        0.0742
     11 S         143.4362  138.6819  162.8087 S.3     1  UNL1       -0.1126
     12 C         140.3585  140.9386  163.8143 C.3     1  UNL1        0.0926
     13 C         140.1143  142.4028  164.0302 C.3     1  UNL1        0.0383
     14 C         139.8229  143.0256  162.6972 C.3     1  UNL1        0.0704
     15 N         139.8871  141.9464  161.6573 N.3     1  UNL1       -0.2960
     16 C         140.2181  140.6566  162.3478 C.3     1  UNL1        0.0887
     17 H         140.6100  142.1680  160.9726 H       1  UNL1        0.1233
     18 C         139.5878  139.1435  165.5270 C.3     1  UNL1        0.0756
     19 C         139.1658  137.7521  165.1581 C.3     1  UNL1        0.0198
     20 C         138.0362  137.3554  166.0618 C.3     1  UNL1        0.0018
     21 C         137.7601  138.5015  166.9893 C.3     1  UNL1        0.0018
     22 C         138.7190  139.6066  166.6588 C.3     1  UNL1        0.0198
@<TRIPOS>BOND
     1    10    11    1
     2    11     4    1
     3     4     5   ar
     4     5     6   ar
     5     6     7   ar
     6     7     8   ar
     7     8     9   ar
     8     9     1    1
     9     1     2    2
    10     1     3   am
    11     3    18    1
    12    18    19    1
    13    19    20    1
    14    20    21    1
    15    21    22    1
    16    12     3    1
    17    12    13    1
    18    13    14    1
    19    14    15    1
    20    15    16    1
    21     9     4   ar
    22    22    18    1
    23    16    12    1
    24    15    17    1
@<TRIPOS>MOLECULE
*****
 22 24 0 0 0
SMALL
GASTEIGER

@<TRIPOS>ATOM
      1 C         141.5305  140.9142  164.9513 C.2     1  UNL1        0.2494
      2 O         142.9453  140.4443  165.1174 O.2     1  UNL1       -0.2699
      3 N         141.2459  142.1937  164.2219 N.am    1  UNL1       -0.2779
      4 C         139.7682  139.0232  164.6897 C.ar    1  UNL1        0.0296
      5 C         138.6381  138.2137  165.2531 C.ar    1  UNL1        0.0063
      6 C         138.1400  138.4858  166.6415 C.ar    1  UNL1        0.0005
      7 C         138.7720  139.5674  167.4666 C.ar    1  UNL1        0.0002
      8 C         139.9022  140.3768  166.9032 C.ar    1  UNL1        0.0050
      9 C         140.4003  140.1048  165.5148 C.ar    1  UNL1        0.0592
     10 C         139.4936  137.8425  162.3917 C.3     1  UNL1        0.0742
     11 S         140.2664  138.7512  163.3012 S.3     1  UNL1       -0.1126
     12 C         139.8311  142.6636  164.0559 C.3     1  UNL1        0.0926
     13 C         139.0758  143.5410  165.0097 C.3     1  UNL1        0.0383
     14 C         137.7011  143.7583  164.4502 C.3     1  UNL1        0.0704
     15 N         137.6068  143.0151  163.1506 N.3     1  UNL1       -0.2960
     16 C         138.9232  142.3386  162.9069 C.3     1  UNL1        0.0887
     17 H         137.4074  143.6676  162.3924 H       1  UNL1        0.1233
     18 C         142.3761  143.0031  163.6585 C.3     1  UNL1        0.0756
     19 C         143.2752  142.5955  162.5291 C.3     1  UNL1        0.0198
     20 C         144.2603  143.7028  162.2981 C.3     1  UNL1        0.0018
     21 C         143.9701  144.7948  163.2848 C.3     1  UNL1        0.0018
     22 C         142.8056  144.3624  164.1255 C.3     1  UNL1        0.0198
@<TRIPOS>BOND
     1    10    11    1
     2    11     4    1
     3     4     5   ar
     4     5     6   ar
     5     6     7   ar
     6     7     8   ar
     7     8     9   ar
     8     9     1    1
     9     1     2    2
    10     1     3   am
    11     3    18    1
    12    18    19    1
    13    19    20    1
    14    20    21    1
    15    21    22    1
    16    12     3    1
    17    12    13    1
    18    13    14    1
    19    14    15    1
    20    15    16    1
    21     9     4   ar
    22    22    18    1
    23    16    12    1
    24    15    17    1
@<TRIPOS>MOLECULE
*****
 22 24 0 0 0
SMALL
GASTEIGER

@<TRIPOS>ATOM
      1 C         138.7696  141.6670  163.0298 C.2     1  UNL1        0.2494
      2 O         137.6218  142.0078  162.1264 O.2     1  UNL1       -0.2699
      3 N         139.9353  142.6036  163.1474 N.am    1  UNL1       -0.2779
      4 C         139.2868  139.1271  163.2074 C.ar    1  UNL1        0.0296
      5 C         139.2690  137.8496  163.9933 C.ar    1  UNL1        0.0063
      6 C         138.7160  137.8344  165.3875 C.ar    1  UNL1        0.0005
      7 C         138.1809  139.0968  165.9959 C.ar    1  UNL1        0.0002
      8 C         138.1988  140.3743  165.2100 C.ar    1  UNL1        0.0050
      9 C         138.7517  140.3894  163.8158 C.ar    1  UNL1        0.0592
     10 C         139.1043  138.4454  160.7070 C.3     1  UNL1        0.0742
     11 S         139.8398  139.1422  161.8131 S.3     1  UNL1       -0.1126
     12 C         141.0832  142.2626  164.0509 C.3     1  UNL1        0.0926
     13 C         141.2141  142.6493  165.4943 C.3     1  UNL1        0.0383
     14 C         142.5135  142.1008  166.0050 C.3     1  UNL1        0.0704
     15 N         143.1856  141.3752  164.8773 N.3     1  UNL1       -0.2960
     16 C         142.3016  141.4752  163.6696 C.3     1  UNL1        0.0887
     17 H         143.3203  140.3955  165.1275 H       1  UNL1        0.1233
     18 C         139.9532  143.8811  162.3615 C.3     1  UNL1        0.0756
     19 C         140.4322  144.0406  160.9490 C.3     1  UNL1        0.0198
     20 C         140.2703  145.4814  160.5646 C.3     1  UNL1        0.0018
     21 C         139.6913  146.2124  161.7396 C.3     1  UNL1        0.0018
     22 C         139.4954  145.2233  162.8501 C.3     1  UNL1        0.0198
@<TRIPOS>BOND
     1    10    11    1
     2    11     4    1
     3     4     5   ar
     4     5     6   ar
     5     6     7   ar
     6     7     8   ar
     7     8     9   ar
     8     9     1    1
     9     1     2    2
    10     1     3   am
    11     3    18    1
    12    18    19    1
    13    19    20    1
    14    20    21    1
    15    21    22    1
    16    12     3    1
    17    12    13    1
    18    13    14    1
    19    14    15    1
    20    15    16    1
    21     9     4   ar
    22    22    18    1
    23    16    12    1
    24    15    17    1
