@<TRIPOS>MOLECULE
*****
 30 31 0 0 0
SMALL
GASTEIGER

@<TRIPOS>ATOM
      1 C         139.4921  138.4553  164.3364 C.3     1  UNL1        0.0047
      2 C         138.6079  138.1853  165.5176 C.3     1  UNL1        0.0050
      3 C         138.6521  139.0933  166.7107 C.3     1  UNL1        0.0260
      4 C         139.5804  140.2714  166.7226 C.ar    1  UNL1       -0.0264
      5 C         139.6246  141.1794  167.9157 C.ar    1  UNL1       -0.0088
      6 C         140.5529  142.3575  167.9277 C.ar    1  UNL1       -0.0225
      7 C         141.4372  142.6277  166.7465 C.ar    1  UNL1       -0.0046
      8 C         141.3930  141.7196  165.5534 C.ar    1  UNL1       -0.0049
      9 C         140.4646  140.5415  165.5415 C.ar    1  UNL1       -0.0262
     10 C         140.4205  139.6334  164.3483 C.3     1  UNL1        0.0260
     11 C         139.4480  137.5473  163.1433 C.3     1  UNL1        0.0003
     12 C         139.0260  138.0838  161.8076 C.3     1  UNL1        0.0000
     13 C         137.8558  139.0171  161.7100 C.3     1  UNL1        0.0000
     14 C         138.0580  140.4938  161.8795 C.3     1  UNL1        0.0000
     15 C         137.1894  141.2657  162.8280 C.3     1  UNL1        0.0000
     16 C         137.8045  141.9865  163.9907 C.3     1  UNL1        0.0000
     17 C         138.5509  144.2668  164.9875 C.3     1  UNL1        0.0000
     18 C         138.3742  143.3616  163.8045 C.3     1  UNL1        0.0000
     19 C         140.5971  143.2656  169.1208 C.3     1  UNL1        0.0278
     20 C         141.7480  143.1885  170.0798 C.3     1  UNL1        0.0238
     21 C         142.0882  141.8851  170.7398 C.3     1  UNL1        0.0940
     22 N         140.8467  141.9843  171.5757 N.3     1  UNL1       -0.3193
     23 H         140.0435  141.6723  171.0299 H       1  UNL1        0.1189
     24 H         140.7069  142.9529  171.8632 H       1  UNL1        0.1189
     25 C         142.4285  140.5818  171.3997 C.3     1  UNL1        0.1536
     26 O         143.6262  139.8012  170.9453 O.3     1  UNL1       -0.3805
     27 H         143.4846  139.4913  170.0372 H       1  UNL1        0.2105
     28 C         143.3297  141.7860  169.9038 C.3     1  UNL1        0.1536
     29 O         144.5731  142.5155  170.3181 O.3     1  UNL1       -0.3805
     30 H         144.4191  143.4718  170.2671 H       1  UNL1        0.2105
@<TRIPOS>BOND
     1    17    18    1
     2    18    16    1
     3    16    15    1
     4    15    14    1
     5    14    13    1
     6    13    12    1
     7    12    11    1
     8    11     1    1
     9     1     2    1
    10     2     3    1
    11     3     4    1
    12     4     5   ar
    13     5     6   ar
    14     6    19    1
    15    19    20    1
    16    20    21    1
    17    21    22    1
    18    21    25    1
    19    25    26    1
    20    21    28    1
    21    28    29    1
    22     6     7   ar
    23     7     8   ar
    24     8     9   ar
    25     9    10    1
    26    10     1    1
    27     9     4   ar
    28    22    23    1
    29    22    24    1
    30    26    27    1
    31    29    30    1
@<TRIPOS>MOLECULE
*****
 30 31 0 0 0
SMALL
GASTEIGER

@<TRIPOS>ATOM
      1 C         140.3476  142.4659  167.8625 C.3     1  UNL1        0.0047
      2 C         140.9581  142.9156  166.5684 C.3     1  UNL1        0.0050
      3 C         140.8327  142.0602  165.3426 C.3     1  UNL1        0.0260
      4 C         140.0967  140.7550  165.4110 C.ar    1  UNL1       -0.0264
      5 C         139.9713  139.8995  164.1853 C.ar    1  UNL1       -0.0088
      6 C         139.2353  138.5943  164.2537 C.ar    1  UNL1       -0.0225
      7 C         138.6247  138.1445  165.5479 C.ar    1  UNL1       -0.0046
      8 C         138.7501  139.0000  166.7736 C.ar    1  UNL1       -0.0049
      9 C         139.4862  140.3052  166.7052 C.ar    1  UNL1       -0.0262
     10 C         139.6116  141.1607  167.9309 C.3     1  UNL1        0.0260
     11 C         140.4730  143.3213  169.0883 C.3     1  UNL1        0.0003
     12 C         141.3529  142.8837  170.2215 C.3     1  UNL1        0.0000
     13 C         142.8358  142.7784  170.0221 C.3     1  UNL1        0.0000
     14 C         143.4291  141.5225  169.4557 C.3     1  UNL1        0.0000
     15 C         142.7875  140.1963  169.7380 C.3     1  UNL1        0.0000
     16 C         142.5810  139.2111  168.6259 C.3     1  UNL1        0.0000
     17 C         143.0257  138.5324  166.1578 C.3     1  UNL1        0.0000
     18 C         142.9186  139.5914  167.2147 C.3     1  UNL1        0.0000
     19 C         139.1099  137.7389  163.0279 C.3     1  UNL1        0.0278
     20 C         138.0342  138.0231  162.0218 C.3     1  UNL1        0.0238
     21 C         138.2725  139.0261  160.9322 C.3     1  UNL1        0.0940
     22 N         137.0472  139.7794  161.3577 N.3     1  UNL1       -0.3193
     23 H         137.2720  140.3698  162.1585 H       1  UNL1        0.1189
     24 H         136.3149  139.1186  161.6173 H       1  UNL1        0.1189
     25 C         138.5109  140.0292  159.8427 C.3     1  UNL1        0.1536
     26 O         137.5821  140.0938  158.6665 O.3     1  UNL1       -0.3805
     27 H         137.6546  139.2747  158.1519 H       1  UNL1        0.2105
     28 C         139.4979  138.2728  160.5068 C.3     1  UNL1        0.1536
     29 O         139.9131  138.2688  159.0654 O.3     1  UNL1       -0.3805
     30 H         139.2452  137.8034  158.5379 H       1  UNL1        0.2105
@<TRIPOS>BOND
     1    17    18    1
     2    18    16    1
     3    16    15    1
     4    15    14    1
     5    14    13    1
     6    13    12    1
     7    12    11    1
     8    11     1    1
     9     1     2    1
    10     2     3    1
    11     3     4    1
    12     4     5   ar
    13     5     6   ar
    14     6    19    1
    15    19    20    1
    16    20    21    1
    17    21    22    1
    18    21    25    1
    19    25    26    1
    20    21    28    1
    21    28    29    1
    22     6     7   ar
    23     7     8   ar
    24     8     9   ar
    25     9    10    1
    26    10     1    1
    27     9     4   ar
    28    22    23    1
    29    22    24    1
    30    26    27    1
    31    29    30    1
@<TRIPOS>MOLECULE
*****
 30 31 0 0 0
SMALL
GASTEIGER

@<TRIPOS>ATOM
      1 C         141.5902  138.6460  162.5325 C.3     1  UNL1        0.0047
      2 C         141.6656  137.6264  163.6301 C.3     1  UNL1        0.0050
      3 C         141.9717  138.0570  165.0340 C.3     1  UNL1        0.0260
      4 C         142.2023  139.5071  165.3402 C.ar    1  UNL1       -0.0264
      5 C         142.5083  139.9377  166.7441 C.ar    1  UNL1       -0.0088
      6 C         142.7389  141.3879  167.0504 C.ar    1  UNL1       -0.0225
      7 C         142.6635  142.4075  165.9528 C.ar    1  UNL1       -0.0046
      8 C         142.3575  141.9769  164.5489 C.ar    1  UNL1       -0.0049
      9 C         142.1268  140.5267  164.2426 C.ar    1  UNL1       -0.0262
     10 C         141.8208  140.0961  162.8387 C.3     1  UNL1        0.0260
     11 C         141.2841  138.2154  161.1286 C.3     1  UNL1        0.0003
     12 C         139.9268  138.4725  160.5443 C.3     1  UNL1        0.0000
     13 C         138.6971  138.2269  161.3674 C.3     1  UNL1        0.0000
     14 C         137.8496  139.3818  161.8126 C.3     1  UNL1        0.0000
     15 C         138.1132  140.0397  163.1346 C.3     1  UNL1        0.0000
     16 C         138.4691  139.2059  164.3296 C.3     1  UNL1        0.0000
     17 C         138.1932  138.9560  166.9009 C.3     1  UNL1        0.0000
     18 C         138.4567  139.8155  165.7001 C.3     1  UNL1        0.0000
     19 C         143.0450  141.8185  168.4543 C.3     1  UNL1        0.0278
     20 C         142.9756  140.8245  169.5757 C.3     1  UNL1        0.0238
     21 C         141.7302  140.7148  170.4045 C.3     1  UNL1        0.0940
     22 N         141.7624  139.2225  170.2554 N.3     1  UNL1       -0.3193
     23 H         142.4243  138.8283  170.9239 H       1  UNL1        0.1189
     24 H         142.0524  138.9818  169.3076 H       1  UNL1        0.1189
     25 C         140.4848  140.6050  171.2333 C.3     1  UNL1        0.1536
     26 O         139.8222  139.2720  171.4185 O.3     1  UNL1       -0.3805
     27 H         139.4782  138.9608  170.5666 H       1  UNL1        0.2105
     28 C         141.6979  142.2070  170.5536 C.3     1  UNL1        0.1536
     29 O         142.5009  142.8704  171.6330 O.3     1  UNL1       -0.3805
     30 H         142.1515  142.6130  172.5005 H       1  UNL1        0.2105
@<TRIPOS>BOND
     1    17    18    1
     2    18    16    1
     3    16    15    1
     4    15    14    1
     5    14    13    1
     6    13    12    1
     7    12    11    1
     8    11     1    1
     9     1     2    1
    10     2     3    1
    11     3     4    1
    12     4     5   ar
    13     5     6   ar
    14     6    19    1
    15    19    20    1
    16    20    21    1
    17    21    22    1
    18    21    25    1
    19    25    26    1
    20    21    28    1
    21    28    29    1
    22     6     7   ar
    23     7     8   ar
    24     8     9   ar
    25     9    10    1
    26    10     1    1
    27     9     4   ar
    28    22    23    1
    29    22    24    1
    30    26    27    1
    31    29    30    1
@<TRIPOS>MOLECULE
*****
 30 31 0 0 0
SMALL
GASTEIGER

@<TRIPOS>ATOM
      1 C         138.8869  139.3191  163.8214 C.3     1  UNL1        0.0047
      2 C         138.1105  139.8434  164.9928 C.3     1  UNL1        0.0050
      3 C         138.7795  140.0013  166.3260 C.3     1  UNL1        0.0260
      4 C         140.2250  139.6349  166.4878 C.ar    1  UNL1       -0.0264
      5 C         140.8940  139.7928  167.8210 C.ar    1  UNL1       -0.0088
      6 C         142.3395  139.4264  167.9829 C.ar    1  UNL1       -0.0225
      7 C         143.1161  138.9021  166.8115 C.ar    1  UNL1       -0.0046
      8 C         142.4470  138.7441  165.4783 C.ar    1  UNL1       -0.0049
      9 C         141.0014  139.1106  165.3165 C.ar    1  UNL1       -0.0262
     10 C         140.3324  138.9527  163.9832 C.3     1  UNL1        0.0260
     11 C         138.2179  139.1612  162.4882 C.3     1  UNL1        0.0003
     12 C         137.6278  140.3556  161.7990 C.3     1  UNL1        0.0000
     13 C         138.4171  141.6268  161.6940 C.3     1  UNL1        0.0000
     14 C         138.0026  142.8342  162.4817 C.3     1  UNL1        0.0000
     15 C         138.6480  143.1246  163.8043 C.3     1  UNL1        0.0000
     16 C         140.1122  142.8628  163.9979 C.3     1  UNL1        0.0000
     17 C         142.1289  142.6475  165.6217 C.3     1  UNL1        0.0000
     18 C         140.7656  143.1890  165.3081 C.3     1  UNL1        0.0000
     19 C         143.0085  139.5843  169.3161 C.3     1  UNL1        0.0278
     20 C         142.3006  140.2959  170.4309 C.3     1  UNL1        0.0238
     21 C         142.3207  141.7943  170.4965 C.3     1  UNL1        0.0940
     22 N         143.7271  141.7982  169.9747 N.3     1  UNL1       -0.3193
     23 H         143.7137  141.6914  168.9604 H       1  UNL1        0.1189
     24 H         144.2464  141.0254  170.3911 H       1  UNL1        0.1189
     25 C         142.3409  143.2927  170.5620 C.3     1  UNL1        0.1536
     26 O         143.4704  143.9981  171.2526 O.3     1  UNL1       -0.3805
     27 H         143.4473  143.7944  172.2007 H       1  UNL1        0.2105
     28 C         140.9144  141.7904  171.0183 C.3     1  UNL1        0.1536
     29 O         140.4939  140.7691  172.0332 O.3     1  UNL1       -0.3805
     30 H         140.5212  139.8857  171.6335 H       1  UNL1        0.2105
@<TRIPOS>BOND
     1    17    18    1
     2    18    16    1
     3    16    15    1
     4    15    14    1
     5    14    13    1
     6    13    12    1
     7    12    11    1
     8    11     1    1
     9     1     2    1
    10     2     3    1
    11     3     4    1
    12     4     5   ar
    13     5     6   ar
    14     6    19    1
    15    19    20    1
    16    20    21    1
    17    21    22    1
    18    21    25    1
    19    25    26    1
    20    21    28    1
    21    28    29    1
    22     6     7   ar
    23     7     8   ar
    24     8     9   ar
    25     9    10    1
    26    10     1    1
    27     9     4   ar
    28    22    23    1
    29    22    24    1
    30    26    27    1
    31    29    30    1
@<TRIPOS>MOLECULE
*****
 30 31 0 0 0
SMALL
GASTEIGER

@<TRIPOS>ATOM
      1 C         139.6747  140.0299  163.5695 C.3     1  UNL1        0.0047
      2 C         138.3647  140.0244  164.3002 C.3     1  UNL1        0.0050
      3 C         138.3425  140.0132  165.8000 C.3     1  UNL1        0.0260
      4 C         139.6302  140.0076  166.5691 C.ar    1  UNL1       -0.0264
      5 C         139.6079  139.9965  168.0689 C.ar    1  UNL1       -0.0088
      6 C         140.8957  139.9908  168.8381 C.ar    1  UNL1       -0.0225
      7 C         142.2057  139.9963  168.1075 C.ar    1  UNL1       -0.0046
      8 C         142.2280  140.0074  166.6077 C.ar    1  UNL1       -0.0049
      9 C         140.9402  140.0131  165.8385 C.ar    1  UNL1       -0.0262
     10 C         140.9624  140.0242  164.3387 C.3     1  UNL1        0.0260
     11 C         139.6969  140.0410  162.0698 C.3     1  UNL1        0.0003
     12 C         138.5919  140.7110  161.3082 C.3     1  UNL1        0.0000
     13 C         138.6757  142.1763  160.9987 C.3     1  UNL1        0.0000
     14 C         138.7917  143.1730  162.1137 C.3     1  UNL1        0.0000
     15 C         137.6548  143.3594  163.0743 C.3     1  UNL1        0.0000
     16 C         137.9323  143.7158  164.5047 C.3     1  UNL1        0.0000
     17 C         140.2841  143.4613  165.5791 C.3     1  UNL1        0.0000
     18 C         139.2567  144.3072  164.8869 C.3     1  UNL1        0.0000
     19 C         140.8734  139.9797  170.3379 C.3     1  UNL1        0.0278
     20 C         141.1754  141.2349  171.1018 C.3     1  UNL1        0.0238
     21 C         140.8868  142.5734  170.4893 C.3     1  UNL1        0.0940
     22 N         139.4161  142.3367  170.6653 N.3     1  UNL1       -0.3193
     23 H         139.1500  142.5498  171.6266 H       1  UNL1        0.1189
     24 H         139.2020  141.3604  170.4616 H       1  UNL1        0.1189
     25 C         140.5982  143.9119  169.8769 C.3     1  UNL1        0.1536
     26 O         139.7057  144.8853  170.5881 O.3     1  UNL1       -0.3805
     27 H         138.8049  144.5279  170.6290 H       1  UNL1        0.2105
     28 C         142.3575  142.8100  170.3134 C.3     1  UNL1        0.1536
     29 O         143.0175  143.9707  170.9969 O.3     1  UNL1       -0.3805
     30 H         142.6745  144.8001  170.6292 H       1  UNL1        0.2105
@<TRIPOS>BOND
     1    17    18    1
     2    18    16    1
     3    16    15    1
     4    15    14    1
     5    14    13    1
     6    13    12    1
     7    12    11    1
     8    11     1    1
     9     1     2    1
    10     2     3    1
    11     3     4    1
    12     4     5   ar
    13     5     6   ar
    14     6    19    1
    15    19    20    1
    16    20    21    1
    17    21    22    1
    18    21    25    1
    19    25    26    1
    20    21    28    1
    21    28    29    1
    22     6     7   ar
    23     7     8   ar
    24     8     9   ar
    25     9    10    1
    26    10     1    1
    27     9     4   ar
    28    22    23    1
    29    22    24    1
    30    26    27    1
    31    29    30    1
@<TRIPOS>MOLECULE
*****
 30 31 0 0 0
SMALL
GASTEIGER

@<TRIPOS>ATOM
      1 C         142.3509  142.2204  168.5295 C.3     1  UNL1        0.0047
      2 C         141.0774  142.9367  168.8687 C.3     1  UNL1        0.0050
      3 C         140.1633  143.4008  167.7737 C.3     1  UNL1        0.0260
      4 C         140.5228  143.1487  166.3394 C.ar    1  UNL1       -0.0264
      5 C         139.6087  143.6128  165.2444 C.ar    1  UNL1       -0.0088
      6 C         139.9682  143.3607  163.8101 C.ar    1  UNL1       -0.0225
      7 C         141.2418  142.6444  163.4708 C.ar    1  UNL1       -0.0046
      8 C         142.1559  142.1803  164.5659 C.ar    1  UNL1       -0.0049
      9 C         141.7963  142.4325  166.0002 C.ar    1  UNL1       -0.0262
     10 C         142.7104  141.9684  167.0952 C.3     1  UNL1        0.0260
     11 C         143.2650  141.7563  169.6245 C.3     1  UNL1        0.0003
     12 C         142.9448  140.5064  170.3894 C.3     1  UNL1        0.0000
     13 C         141.8887  139.5682  169.8850 C.3     1  UNL1        0.0000
     14 C         140.4435  139.8333  170.1873 C.3     1  UNL1        0.0000
     15 C         139.4466  139.9174  169.0697 C.3     1  UNL1        0.0000
     16 C         139.8783  139.6511  167.6581 C.3     1  UNL1        0.0000
     17 C         139.3743  139.7377  165.1108 C.3     1  UNL1        0.0000
     18 C         138.9000  139.8097  166.5321 C.3     1  UNL1        0.0000
     19 C         139.0542  143.8248  162.7151 C.3     1  UNL1        0.0278
     20 C         137.7512  143.1207  162.4769 C.3     1  UNL1        0.0238
     21 C         137.7431  141.6849  162.0427 C.3     1  UNL1        0.0940
     22 N         136.8501  141.3407  163.1977 N.3     1  UNL1       -0.3193
     23 H         135.8854  141.5751  162.9633 H       1  UNL1        0.1189
     24 H         137.1384  141.8706  164.0202 H       1  UNL1        0.1189
     25 C         137.7349  140.2492  161.6085 C.3     1  UNL1        0.1536
     26 O         136.5983  139.7214  160.7840 O.3     1  UNL1       -0.3805
     27 H         135.7832  139.7367  161.3097 H       1  UNL1        0.2105
     28 C         138.6361  142.0292  160.8877 C.3     1  UNL1        0.1536
     29 O         139.0624  140.9609  159.9249 O.3     1  UNL1       -0.3805
     30 H         139.6289  140.3203  160.3828 H       1  UNL1        0.2105
@<TRIPOS>BOND
     1    17    18    1
     2    18    16    1
     3    16    15    1
     4    15    14    1
     5    14    13    1
     6    13    12    1
     7    12    11    1
     8    11     1    1
     9     1     2    1
    10     2     3    1
    11     3     4    1
    12     4     5   ar
    13     5     6   ar
    14     6    19    1
    15    19    20    1
    16    20    21    1
    17    21    22    1
    18    21    25    1
    19    25    26    1
    20    21    28    1
    21    28    29    1
    22     6     7   ar
    23     7     8   ar
    24     8     9   ar
    25     9    10    1
    26    10     1    1
    27     9     4   ar
    28    22    23    1
    29    22    24    1
    30    26    27    1
    31    29    30    1
@<TRIPOS>MOLECULE
*****
 30 31 0 0 0
SMALL
GASTEIGER

@<TRIPOS>ATOM
      1 C         140.2882  143.5858  163.1774 C.3     1  UNL1        0.0047
      2 C         139.7871  144.0883  164.4988 C.3     1  UNL1        0.0050
      3 C         140.1878  143.3935  165.7663 C.3     1  UNL1        0.0260
      4 C         141.0898  142.1962  165.7124 C.ar    1  UNL1       -0.0264
      5 C         141.4905  141.5014  166.9800 C.ar    1  UNL1       -0.0088
      6 C         142.3925  140.3041  166.9261 C.ar    1  UNL1       -0.0225
      7 C         142.8937  139.8015  165.6046 C.ar    1  UNL1       -0.0046
      8 C         142.4929  140.4963  164.3370 C.ar    1  UNL1       -0.0049
      9 C         141.5909  141.6937  164.3910 C.ar    1  UNL1       -0.0262
     10 C         141.1902  142.3885  163.1234 C.3     1  UNL1        0.0260
     11 C         139.8875  144.2806  161.9098 C.3     1  UNL1        0.0003
     12 C         139.7038  143.4912  160.6476 C.3     1  UNL1        0.0000
     13 C         138.5386  142.5566  160.5104 C.3     1  UNL1        0.0000
     14 C         138.7013  141.1019  160.8383 C.3     1  UNL1        0.0000
     15 C         137.7530  140.4374  161.7918 C.3     1  UNL1        0.0000
     16 C         137.4320  141.0871  163.1052 C.3     1  UNL1        0.0000
     17 C         138.7189  139.2543  164.4223 C.3     1  UNL1        0.0000
     18 C         138.1189  140.6276  164.3569 C.3     1  UNL1        0.0000
     19 C         142.7932  139.6093  168.1936 C.3     1  UNL1        0.0278
     20 C         141.8005  139.4478  169.3065 C.3     1  UNL1        0.0238
     21 C         141.7952  140.4150  170.4530 C.3     1  UNL1        0.0940
     22 N         143.2920  140.4936  170.3935 N.3     1  UNL1       -0.3193
     23 H         143.5694  141.1382  169.6533 H       1  UNL1        0.1189
     24 H         143.6736  139.5679  170.1991 H       1  UNL1        0.1189
     25 C         141.7900  141.3821  171.5996 C.3     1  UNL1        0.1536
     26 O         140.5486  142.1619  171.9174 O.3     1  UNL1       -0.3805
     27 H         140.3550  142.7726  171.1890 H       1  UNL1        0.2105
     28 C         140.2985  140.3363  170.5126 C.3     1  UNL1        0.1536
     29 O         139.6353  139.3161  171.3896 O.3     1  UNL1       -0.3805
     30 H         139.8315  138.4266  171.0561 H       1  UNL1        0.2105
@<TRIPOS>BOND
     1    17    18    1
     2    18    16    1
     3    16    15    1
     4    15    14    1
     5    14    13    1
     6    13    12    1
     7    12    11    1
     8    11     1    1
     9     1     2    1
    10     2     3    1
    11     3     4    1
    12     4     5   ar
    13     5     6   ar
    14     6    19    1
    15    19    20    1
    16    20    21    1
    17    21    22    1
    18    21    25    1
    19    25    26    1
    20    21    28    1
    21    28    29    1
    22     6     7   ar
    23     7     8   ar
    24     8     9   ar
    25     9    10    1
    26    10     1    1
    27     9     4   ar
    28    22    23    1
    29    22    24    1
    30    26    27    1
    31    29    30    1
@<TRIPOS>MOLECULE
*****
 30 31 0 0 0
SMALL
GASTEIGER

@<TRIPOS>ATOM
      1 C         138.9487  141.9700  162.5557 C.3     1  UNL1        0.0047
      2 C         138.1724  142.4176  163.7586 C.3     1  UNL1        0.0050
      3 C         138.8631  142.5762  165.0806 C.3     1  UNL1        0.0260
      4 C         140.3301  142.2871  165.1997 C.ar    1  UNL1       -0.0264
      5 C         141.0208  142.4457  166.5218 C.ar    1  UNL1       -0.0088
      6 C         142.4879  142.1566  166.6409 C.ar    1  UNL1       -0.0225
      7 C         143.2643  141.7090  165.4380 C.ar    1  UNL1       -0.0046
      8 C         142.5735  141.5505  164.1159 C.ar    1  UNL1       -0.0049
      9 C         141.1064  141.8395  163.9968 C.ar    1  UNL1       -0.0262
     10 C         140.4157  141.6810  162.6748 C.3     1  UNL1        0.0260
     11 C         138.2579  141.8115  161.2336 C.3     1  UNL1        0.0003
     12 C         138.1562  140.4565  160.5983 C.3     1  UNL1        0.0000
     13 C         137.7864  139.2641  161.4298 C.3     1  UNL1        0.0000
     14 C         138.8490  138.3075  161.8836 C.3     1  UNL1        0.0000
     15 C         138.8382  137.7868  163.2903 C.3     1  UNL1        0.0000
     16 C         138.7691  138.7433  164.4436 C.3     1  UNL1        0.0000
     17 C         141.2396  138.3097  165.1208 C.3     1  UNL1        0.0000
     18 C         139.8503  138.7440  165.4833 C.3     1  UNL1        0.0000
     19 C         143.1786  142.3152  167.9629 C.3     1  UNL1        0.0278
     20 C         142.9610  141.3036  169.0489 C.3     1  UNL1        0.0238
     21 C         141.7324  141.3764  169.9064 C.3     1  UNL1        0.0940
     22 N         141.3110  140.0223  169.4176 N.3     1  UNL1       -0.3193
     23 H         141.8144  139.3020  169.9355 H       1  UNL1        0.1189
     24 H         141.5241  139.9381  168.4237 H       1  UNL1        0.1189
     25 C         140.5038  141.4492  170.7639 C.3     1  UNL1        0.1536
     26 O         140.5520  142.1587  172.0847 O.3     1  UNL1       -0.3805
     27 H         141.1425  141.6803  172.6874 H       1  UNL1        0.2105
     28 C         142.1538  142.7304  170.3953 C.3     1  UNL1        0.1536
     29 O         141.2748  143.9217  170.1546 O.3     1  UNL1       -0.3805
     30 H         141.2263  144.1007  169.2025 H       1  UNL1        0.2105
@<TRIPOS>BOND
     1    17    18    1
     2    18    16    1
     3    16    15    1
     4    15    14    1
     5    14    13    1
     6    13    12    1
     7    12    11    1
     8    11     1    1
     9     1     2    1
    10     2     3    1
    11     3     4    1
    12     4     5   ar
    13     5     6   ar
    14     6    19    1
    15    19    20    1
    16    20    21    1
    17    21    22    1
    18    21    25    1
    19    25    26    1
    20    21    28    1
    21    28    29    1
    22     6     7   ar
    23     7     8   ar
    24     8     9   ar
    25     9    10    1
    26    10     1    1
    27     9     4   ar
    28    22    23    1
    29    22    24    1
    30    26    27    1
    31    29    30    1
@<TRIPOS>MOLECULE
*****
 30 31 0 0 0
SMALL
GASTEIGER

@<TRIPOS>ATOM
      1 C         140.2440  138.4739  163.0068 C.3     1  UNL1        0.0047
      2 C         141.4103  139.3143  163.4349 C.3     1  UNL1        0.0050
      3 C         141.4575  139.8803  164.8232 C.3     1  UNL1        0.0260
      4 C         140.3382  139.6060  165.7834 C.ar    1  UNL1       -0.0264
      5 C         140.3853  140.1721  167.1717 C.ar    1  UNL1       -0.0088
      6 C         139.2661  139.8978  168.1318 C.ar    1  UNL1       -0.0225
      7 C         138.0996  139.0574  167.7037 C.ar    1  UNL1       -0.0046
      8 C         138.0525  138.4914  166.3154 C.ar    1  UNL1       -0.0049
      9 C         139.1718  138.7657  165.3553 C.ar    1  UNL1       -0.0262
     10 C         139.1247  138.1996  163.9670 C.3     1  UNL1        0.0260
     11 C         140.1968  137.9079  161.6185 C.3     1  UNL1        0.0003
     12 C         139.2714  138.5008  160.5978 C.3     1  UNL1        0.0000
     13 C         138.9696  139.9699  160.6226 C.3     1  UNL1        0.0000
     14 C         137.7160  140.4671  161.2794 C.3     1  UNL1        0.0000
     15 C         137.7656  141.6662  162.1792 C.3     1  UNL1        0.0000
     16 C         137.5573  141.5049  163.6559 C.3     1  UNL1        0.0000
     17 C         139.2887  142.9715  164.9214 C.3     1  UNL1        0.0000
     18 C         137.8646  142.6416  164.5852 C.3     1  UNL1        0.0000
     19 C         139.3132  140.4638  169.5201 C.3     1  UNL1        0.0278
     20 C         140.5820  140.3914  170.3170 C.3     1  UNL1        0.0238
     21 C         141.4263  141.6182  170.4961 C.3     1  UNL1        0.0940
     22 N         142.6214  140.7553  170.7736 N.3     1  UNL1       -0.3193
     23 H         143.0161  140.4274  169.8920 H       1  UNL1        0.1189
     24 H         142.3387  139.9543  171.3382 H       1  UNL1        0.1189
     25 C         142.2705  142.8450  170.6752 C.3     1  UNL1        0.1536
     26 O         143.7143  142.8279  170.2685 O.3     1  UNL1       -0.3805
     27 H         144.2026  142.2106  170.8354 H       1  UNL1        0.2105
     28 C         140.2312  142.4811  170.2186 C.3     1  UNL1        0.1536
     29 O         139.5254  143.1706  171.3483 O.3     1  UNL1       -0.3805
     30 H         139.1163  142.5079  171.9265 H       1  UNL1        0.2105
@<TRIPOS>BOND
     1    17    18    1
     2    18    16    1
     3    16    15    1
     4    15    14    1
     5    14    13    1
     6    13    12    1
     7    12    11    1
     8    11     1    1
     9     1     2    1
    10     2     3    1
    11     3     4    1
    12     4     5   ar
    13     5     6   ar
    14     6    19    1
    15    19    20    1
    16    20    21    1
    17    21    22    1
    18    21    25    1
    19    25    26    1
    20    21    28    1
    21    28    29    1
    22     6     7   ar
    23     7     8   ar
    24     8     9   ar
    25     9    10    1
    26    10     1    1
    27     9     4   ar
    28    22    23    1
    29    22    24    1
    30    26    27    1
    31    29    30    1
