@<TRIPOS>MOLECULE
*****
 42 47 0 0 0
SMALL
GASTEIGER

@<TRIPOS>ATOM
      1 N         141.1004  138.5608  160.1620 N.am    1  UNL1       -0.2804
      2 C         142.0002  138.0430  159.0794 C.2     1  UNL1        0.2495
      3 O         143.3631  137.5192  159.4233 O.2     1  UNL1       -0.2698
      4 H         140.2059  138.9046  159.9362 H       1  UNL1        0.1552
      5 C         141.5371  138.0489  157.6527 C.ar    1  UNL1        0.0543
      6 C         142.4009  137.4522  156.5812 C.ar    1  UNL1        0.0042
      7 C         141.9378  137.4581  155.1546 C.ar    1  UNL1       -0.0035
      8 C         140.6109  138.0606  154.7992 C.ar    1  UNL1       -0.0142
      9 C         140.1478  138.0665  153.3725 C.3     1  UNL1        0.0317
     10 C         139.7471  138.6572  155.8706 C.ar    1  UNL1        0.0382
     11 C         140.2102  138.6514  157.2973 C.ar    1  UNL1        0.0124
     12 C         138.4202  139.2598  155.5152 C.1     1  UNL1       -0.0585
     13 C         137.0932  139.8622  155.1599 C.1     1  UNL1       -0.0388
     14 C         135.7663  140.4647  154.8045 C.ar    1  UNL1        0.1451
     15 C         135.4787  141.3192  153.6057 C.ar    1  UNL1        0.1281
     16 N         134.0287  141.7011  153.6459 N.ar    1  UNL1       -0.2228
     17 C         133.4201  141.0826  154.8695 C.ar    1  UNL1        0.1646
     18 C         132.0269  141.1166  155.4241 C.ar    1  UNL1        0.0405
     19 C         131.7076  140.3863  156.6949 C.ar    1  UNL1        0.0256
     20 C         132.7815  139.6222  157.4109 C.ar    1  UNL1        0.1207
     21 N         134.1748  139.5883  156.8563 N.ar    1  UNL1       -0.1616
     22 N         134.4941  140.3185  155.5856 N.ar    1  UNL1       -0.2030
     23 C         142.4896  138.5432  164.4423 C.ar    1  UNL1       -0.0100
     24 C         141.4649  137.5490  163.9823 C.ar    1  UNL1       -0.0020
     25 C         141.0018  137.5549  162.5555 C.ar    1  UNL1        0.0144
     26 C         141.5634  138.5550  161.5888 C.ar    1  UNL1        0.0502
     27 C         142.5881  139.5491  162.0488 C.ar    1  UNL1        0.0101
     28 C         143.0512  139.5432  163.4756 C.ar    1  UNL1       -0.0239
     29 C         144.0759  140.5374  163.9356 C.3     1  UNL1        0.0221
     30 C         145.5046  140.9871  164.0170 C.3     1  UNL1        0.0047
     31 C         144.4220  141.8096  164.6509 C.3     1  UNL1        0.0047
     32 C         142.9526  138.5373  165.8690 C.3     1  UNL1        0.0989
     33 N         140.6039  140.7491  169.0060 N.3     1  UNL1       -0.2682
     34 C         140.1722  140.8009  167.5704 C.3     1  UNL1        0.0897
     35 C         140.9550  140.0636  166.5247 C.3     1  UNL1        0.0899
     36 N         142.1697  139.2746  166.9146 N.3     1  UNL1       -0.2665
     37 C         142.6015  139.2228  168.3503 C.3     1  UNL1        0.0899
     38 C         141.8186  139.9601  169.3959 C.3     1  UNL1        0.0897
     39 C         139.8209  141.4865  170.0517 C.3     1  UNL1        0.1046
     40 C         140.0457  142.9547  170.2606 C.3     1  UNL1        0.1595
     41 C         142.6023  143.2651  170.6030 C.3     1  UNL1        0.1742
     42 O         141.3450  143.5806  169.8483 O.3     1  UNL1       -0.3496
@<TRIPOS>BOND
     1    41    42    1
     2    42    40    1
     3    40    39    1
     4    39    33    1
     5    33    34    1
     6    34    35    1
     7    35    36    1
     8    36    32    1
     9    32    23    1
    10    23    24   ar
    11    24    25   ar
    12    25    26   ar
    13    26     1    1
    14     1     2   am
    15     2     3    2
    16     2     5    1
    17     5     6   ar
    18     6     7   ar
    19     7     8   ar
    20     8     9    1
    21     8    10   ar
    22    10    12    1
    23    12    13    3
    24    13    14    1
    25    14    15   ar
    26    15    16   ar
    27    16    17   ar
    28    17    18   ar
    29    18    19   ar
    30    19    20   ar
    31    20    21   ar
    32    21    22   ar
    33    10    11   ar
    34    26    27   ar
    35    27    28   ar
    36    28    29    1
    37    29    30    1
    38    30    31    1
    39    36    37    1
    40    37    38    1
    41    38    33    1
    42    28    23   ar
    43    31    29    1
    44    11     5   ar
    45    22    14   ar
    46    22    17   ar
    47     1     4    1
@<TRIPOS>MOLECULE
*****
 42 47 0 0 0
SMALL
GASTEIGER

@<TRIPOS>ATOM
      1 N         143.6054  139.0199  157.6779 N.am    1  UNL1       -0.2804
      2 C         142.4167  138.1150  157.5438 C.2     1  UNL1        0.2495
      3 O         141.3539  138.1107  158.6024 O.2     1  UNL1       -0.2698
      4 H         144.3029  139.0226  156.9831 H       1  UNL1        0.1552
      5 C         142.2906  137.2142  156.3510 C.ar    1  UNL1        0.0543
      6 C         141.6536  137.7222  155.0915 C.ar    1  UNL1        0.0042
      7 C         141.5276  136.8214  153.8988 C.ar    1  UNL1       -0.0035
      8 C         142.0385  135.4127  153.9654 C.ar    1  UNL1       -0.0142
      9 C         141.9124  134.5119  152.7726 C.3     1  UNL1        0.0317
     10 C         142.6755  134.9048  155.2248 C.ar    1  UNL1        0.0382
     11 C         142.8016  135.8055  156.4176 C.ar    1  UNL1        0.0124
     12 C         143.1864  133.4960  155.2914 C.1     1  UNL1       -0.0585
     13 C         143.6974  132.0873  155.3581 C.1     1  UNL1       -0.0388
     14 C         144.2084  130.6786  155.4248 C.ar    1  UNL1        0.1451
     15 C         144.7090  129.8666  154.2672 C.ar    1  UNL1        0.1281
     16 N         145.1184  128.5207  154.7877 N.ar    1  UNL1       -0.2228
     17 C         144.8708  128.5009  156.2670 C.ar    1  UNL1        0.1646
     18 C         145.0849  127.4408  157.3063 C.ar    1  UNL1        0.0405
     19 C         144.7365  127.7143  158.7394 C.ar    1  UNL1        0.0256
     20 C         144.1740  129.0479  159.1331 C.ar    1  UNL1        0.1207
     21 N         143.9600  130.1081  158.0938 N.ar    1  UNL1       -0.1616
     22 N         144.3084  129.8345  156.6607 N.ar    1  UNL1       -0.2030
     23 C         143.9836  141.7222  161.2563 C.ar    1  UNL1       -0.0100
     24 C         143.8280  142.3106  159.8853 C.ar    1  UNL1       -0.0020
     25 C         143.7019  141.4097  158.6925 C.ar    1  UNL1        0.0144
     26 C         143.7315  139.9206  158.8707 C.ar    1  UNL1        0.0502
     27 C         143.8871  139.3324  160.2417 C.ar    1  UNL1        0.0101
     28 C         144.0132  140.2331  161.4345 C.ar    1  UNL1       -0.0239
     29 C         144.1689  139.6448  162.8055 C.3     1  UNL1        0.0221
     30 C         144.9602  139.4896  164.0703 C.3     1  UNL1        0.0047
     31 C         143.6472  138.7809  163.9152 C.3     1  UNL1        0.0047
     32 C         144.1097  142.6229  162.4491 C.3     1  UNL1        0.0989
     33 N         140.4158  144.2102  164.4703 N.3     1  UNL1       -0.2682
     34 C         140.9337  142.8461  164.8183 C.3     1  UNL1        0.0897
     35 C         142.1650  142.3170  164.1446 C.3     1  UNL1        0.0899
     36 N         142.8784  143.1520  163.1228 N.3     1  UNL1       -0.2665
     37 C         142.3604  144.5161  162.7748 C.3     1  UNL1        0.0899
     38 C         141.1291  145.0452  163.4486 C.3     1  UNL1        0.0897
     39 C         139.1844  144.7393  165.1441 C.3     1  UNL1        0.1046
     40 C         137.8268  144.3447  164.6427 C.3     1  UNL1        0.1595
     41 C         137.6893  142.5747  162.7459 C.3     1  UNL1        0.1742
     42 O         137.6318  144.0048  163.1948 O.3     1  UNL1       -0.3496
@<TRIPOS>BOND
     1    41    42    1
     2    42    40    1
     3    40    39    1
     4    39    33    1
     5    33    34    1
     6    34    35    1
     7    35    36    1
     8    36    32    1
     9    32    23    1
    10    23    24   ar
    11    24    25   ar
    12    25    26   ar
    13    26     1    1
    14     1     2   am
    15     2     3    2
    16     2     5    1
    17     5     6   ar
    18     6     7   ar
    19     7     8   ar
    20     8     9    1
    21     8    10   ar
    22    10    12    1
    23    12    13    3
    24    13    14    1
    25    14    15   ar
    26    15    16   ar
    27    16    17   ar
    28    17    18   ar
    29    18    19   ar
    30    19    20   ar
    31    20    21   ar
    32    21    22   ar
    33    10    11   ar
    34    26    27   ar
    35    27    28   ar
    36    28    29    1
    37    29    30    1
    38    30    31    1
    39    36    37    1
    40    37    38    1
    41    38    33    1
    42    28    23   ar
    43    31    29    1
    44    11     5   ar
    45    22    14   ar
    46    22    17   ar
    47     1     4    1
@<TRIPOS>MOLECULE
*****
 42 47 0 0 0
SMALL
GASTEIGER

@<TRIPOS>ATOM
      1 N         143.7542  138.8311  159.3756 N.am    1  UNL1       -0.2804
      2 C         142.4383  138.3110  158.8777 C.2     1  UNL1        0.2495
      3 O         141.2187  138.4022  159.7461 O.2     1  UNL1       -0.2698
      4 H         144.5547  138.7712  158.8056 H       1  UNL1        0.1552
      5 C         142.3420  137.6997  157.5113 C.ar    1  UNL1        0.0543
      6 C         141.8276  138.5127  156.3604 C.ar    1  UNL1        0.0042
      7 C         141.7313  137.9013  154.9941 C.ar    1  UNL1       -0.0035
      8 C         142.1495  136.4770  154.7785 C.ar    1  UNL1       -0.0142
      9 C         142.0532  135.8657  153.4121 C.3     1  UNL1        0.0317
     10 C         142.6639  135.6641  155.9293 C.ar    1  UNL1        0.0382
     11 C         142.7602  136.2754  157.2957 C.ar    1  UNL1        0.0124
     12 C         143.0821  134.2398  155.7137 C.1     1  UNL1       -0.0585
     13 C         143.5003  132.8155  155.4981 C.1     1  UNL1       -0.0388
     14 C         143.9185  131.3911  155.2825 C.ar    1  UNL1        0.1451
     15 C         144.0515  130.7024  153.9566 C.ar    1  UNL1        0.1281
     16 N         144.4923  129.2911  154.2096 N.ar    1  UNL1       -0.2228
     17 C         144.6316  129.1076  155.6918 C.ar    1  UNL1        0.1646
     18 C         145.0355  127.9264  156.5234 C.ar    1  UNL1        0.0405
     19 C         145.0849  128.0432  158.0180 C.ar    1  UNL1        0.0256
     20 C         144.7302  129.3411  158.6811 C.ar    1  UNL1        0.1207
     21 N         144.3263  130.5223  157.8495 N.ar    1  UNL1       -0.1616
     22 N         144.2769  130.4056  156.3549 N.ar    1  UNL1       -0.2030
     23 C         144.0431  140.6649  163.4748 C.ar    1  UNL1       -0.0100
     24 C         144.2138  139.1848  163.3017 C.ar    1  UNL1       -0.0020
     25 C         144.1175  138.5735  161.9352 C.ar    1  UNL1        0.0144
     26 C         143.8505  139.4424  160.7420 C.ar    1  UNL1        0.0502
     27 C         143.6799  140.9225  160.9152 C.ar    1  UNL1        0.0101
     28 C         143.7762  141.5338  162.2816 C.ar    1  UNL1       -0.0239
     29 C         143.6056  143.0139  162.4547 C.3     1  UNL1        0.0221
     30 C         144.1951  144.3670  162.7229 C.3     1  UNL1        0.0047
     31 C         142.7207  144.2247  162.4864 C.3     1  UNL1        0.0047
     32 C         144.1394  141.2762  164.8412 C.3     1  UNL1        0.0989
     33 N         140.7740  140.7532  167.7823 N.3     1  UNL1       -0.2682
     34 C         140.8189  141.9669  166.9020 C.3     1  UNL1        0.0897
     35 C         141.9407  142.1413  165.9216 C.3     1  UNL1        0.0899
     36 N         143.0176  141.1019  165.8216 N.3     1  UNL1       -0.2665
     37 C         142.9728  139.8882  166.7019 C.3     1  UNL1        0.0899
     38 C         141.8509  139.7138  167.6823 C.3     1  UNL1        0.0897
     39 C         139.6521  140.5788  168.7627 C.3     1  UNL1        0.1046
     40 C         139.9368  140.0740  170.1462 C.3     1  UNL1        0.1595
     41 C         141.4820  141.9169  171.1290 C.3     1  UNL1        0.1742
     42 O         140.2698  141.0409  171.2436 O.3     1  UNL1       -0.3496
@<TRIPOS>BOND
     1    41    42    1
     2    42    40    1
     3    40    39    1
     4    39    33    1
     5    33    34    1
     6    34    35    1
     7    35    36    1
     8    36    32    1
     9    32    23    1
    10    23    24   ar
    11    24    25   ar
    12    25    26   ar
    13    26     1    1
    14     1     2   am
    15     2     3    2
    16     2     5    1
    17     5     6   ar
    18     6     7   ar
    19     7     8   ar
    20     8     9    1
    21     8    10   ar
    22    10    12    1
    23    12    13    3
    24    13    14    1
    25    14    15   ar
    26    15    16   ar
    27    16    17   ar
    28    17    18   ar
    29    18    19   ar
    30    19    20   ar
    31    20    21   ar
    32    21    22   ar
    33    10    11   ar
    34    26    27   ar
    35    27    28   ar
    36    28    29    1
    37    29    30    1
    38    30    31    1
    39    36    37    1
    40    37    38    1
    41    38    33    1
    42    28    23   ar
    43    31    29    1
    44    11     5   ar
    45    22    14   ar
    46    22    17   ar
    47     1     4    1
@<TRIPOS>MOLECULE
*****
 42 47 0 0 0
SMALL
GASTEIGER

@<TRIPOS>ATOM
      1 N         138.9599  139.1203  158.4559 N.am    1  UNL1       -0.2804
      2 C         138.8036  140.5279  157.9617 C.2     1  UNL1        0.2495
      3 O         139.4800  141.6557  158.6832 O.2     1  UNL1       -0.2698
      4 H         138.5159  138.3802  157.9823 H       1  UNL1        0.1552
      5 C         137.9709  140.8077  156.7458 C.ar    1  UNL1        0.0543
      6 C         138.6348  141.1326  155.4405 C.ar    1  UNL1        0.0042
      7 C         137.8020  141.4124  154.2247 C.ar    1  UNL1       -0.0035
      8 C         136.3053  141.3673  154.3141 C.ar    1  UNL1       -0.0142
      9 C         135.4726  141.6471  153.0983 C.3     1  UNL1        0.0317
     10 C         135.6415  141.0425  155.6194 C.ar    1  UNL1        0.0382
     11 C         136.4742  140.7627  156.8352 C.ar    1  UNL1        0.0124
     12 C         134.1448  140.9974  155.7088 C.1     1  UNL1       -0.0585
     13 C         132.6481  140.9525  155.7981 C.1     1  UNL1       -0.0388
     14 C         131.1515  140.9074  155.8875 C.ar    1  UNL1        0.1451
     15 C         130.1946  141.7287  155.0752 C.ar    1  UNL1        0.1281
     16 N         128.8007  141.3620  155.4906 N.ar    1  UNL1       -0.2228
     17 C         128.8961  140.3142  156.5596 C.ar    1  UNL1        0.1646
     18 C         127.8477  139.5795  157.3413 C.ar    1  UNL1        0.0405
     19 C         128.2522  138.5639  158.3684 C.ar    1  UNL1        0.0256
     20 C         129.7051  138.2830  158.6137 C.ar    1  UNL1        0.1207
     21 N         130.7535  139.0176  157.8320 N.ar    1  UNL1       -0.1616
     22 N         130.3490  140.0332  156.8049 N.ar    1  UNL1       -0.2030
     23 C         141.4581  138.2809  162.1035 C.ar    1  UNL1       -0.0100
     24 C         142.1061  138.3620  160.7531 C.ar    1  UNL1       -0.0020
     25 C         141.2733  138.6419  159.5372 C.ar    1  UNL1        0.0144
     26 C         139.7926  138.8405  159.6718 C.ar    1  UNL1        0.0502
     27 C         139.1447  138.7594  161.0222 C.ar    1  UNL1        0.0101
     28 C         139.9775  138.4796  162.2380 C.ar    1  UNL1       -0.0239
     29 C         139.3295  138.3985  163.5884 C.3     1  UNL1        0.0221
     30 C         138.6014  139.0586  164.7216 C.3     1  UNL1        0.0047
     31 C         138.9352  137.5979  164.7940 C.3     1  UNL1        0.0047
     32 C         142.2909  138.0011  163.3193 C.3     1  UNL1        0.0989
     33 N         142.9480  141.2268  166.3872 N.3     1  UNL1       -0.2682
     34 C         142.6564  139.8225  166.8262 C.3     1  UNL1        0.0897
     35 C         142.4374  138.7472  165.8036 C.3     1  UNL1        0.0899
     36 N         142.5099  139.0763  164.3420 N.3     1  UNL1       -0.2665
     37 C         142.8015  140.4807  163.9029 C.3     1  UNL1        0.0899
     38 C         143.0206  141.5560  164.9256 C.3     1  UNL1        0.0897
     39 C         143.1671  142.3021  167.4100 C.3     1  UNL1        0.1046
     40 C         142.9506  142.0087  168.8650 C.3     1  UNL1        0.1595
     41 C         140.6800  143.1917  169.3059 C.3     1  UNL1        0.1742
     42 O         141.5597  141.9827  169.4259 O.3     1  UNL1       -0.3496
@<TRIPOS>BOND
     1    41    42    1
     2    42    40    1
     3    40    39    1
     4    39    33    1
     5    33    34    1
     6    34    35    1
     7    35    36    1
     8    36    32    1
     9    32    23    1
    10    23    24   ar
    11    24    25   ar
    12    25    26   ar
    13    26     1    1
    14     1     2   am
    15     2     3    2
    16     2     5    1
    17     5     6   ar
    18     6     7   ar
    19     7     8   ar
    20     8     9    1
    21     8    10   ar
    22    10    12    1
    23    12    13    3
    24    13    14    1
    25    14    15   ar
    26    15    16   ar
    27    16    17   ar
    28    17    18   ar
    29    18    19   ar
    30    19    20   ar
    31    20    21   ar
    32    21    22   ar
    33    10    11   ar
    34    26    27   ar
    35    27    28   ar
    36    28    29    1
    37    29    30    1
    38    30    31    1
    39    36    37    1
    40    37    38    1
    41    38    33    1
    42    28    23   ar
    43    31    29    1
    44    11     5   ar
    45    22    14   ar
    46    22    17   ar
    47     1     4    1
@<TRIPOS>MOLECULE
*****
 42 47 0 0 0
SMALL
GASTEIGER

@<TRIPOS>ATOM
      1 N         140.5040  138.5868  160.5524 N.am    1  UNL1       -0.2804
      2 C         141.9351  138.9020  160.2321 C.2     1  UNL1        0.2495
      3 O         142.8470  139.4206  161.3043 O.2     1  UNL1       -0.2698
      4 H         139.9055  138.2464  159.8486 H       1  UNL1        0.1552
      5 C         142.4544  138.6985  158.8396 C.ar    1  UNL1        0.0543
      6 C         143.0227  139.8568  158.0743 C.ar    1  UNL1        0.0042
      7 C         143.5420  139.6533  156.6820 C.ar    1  UNL1       -0.0035
      8 C         143.4929  138.2916  156.0547 C.ar    1  UNL1       -0.0142
      9 C         144.0122  138.0882  154.6622 C.3     1  UNL1        0.0317
     10 C         142.9246  137.1335  156.8199 C.ar    1  UNL1        0.0382
     11 C         142.4053  137.3369  158.2123 C.ar    1  UNL1        0.0124
     12 C         142.8755  135.7718  156.1926 C.1     1  UNL1       -0.0585
     13 C         142.8264  134.4101  155.5653 C.1     1  UNL1       -0.0388
     14 C         142.7773  133.0485  154.9380 C.ar    1  UNL1        0.1451
     15 C         142.5086  132.7530  153.4921 C.ar    1  UNL1        0.1281
     16 N         142.5536  131.2651  153.3070 N.ar    1  UNL1       -0.2228
     17 C         142.8501  130.6411  154.6384 C.ar    1  UNL1        0.1646
     18 C         143.0121  129.2116  155.0631 C.ar    1  UNL1        0.0405
     19 C         143.3124  128.8844  156.4959 C.ar    1  UNL1        0.0256
     20 C         143.4507  129.9866  157.5038 C.ar    1  UNL1        0.1207
     21 N         143.2887  131.4160  157.0791 N.ar    1  UNL1       -0.1616
     22 N         142.9884  131.7433  155.6464 N.ar    1  UNL1       -0.2030
     23 C         138.9462  139.1970  164.7298 C.ar    1  UNL1       -0.0100
     24 C         139.3868  137.8339  164.2854 C.ar    1  UNL1       -0.0020
     25 C         139.9061  137.6305  162.8929 C.ar    1  UNL1        0.0144
     26 C         139.9847  138.7902  161.9448 C.ar    1  UNL1        0.0502
     27 C         139.5440  140.1534  162.3893 C.ar    1  UNL1        0.0101
     28 C         139.0248  140.3568  163.7818 C.ar    1  UNL1       -0.0239
     29 C         138.5841  141.7200  164.2262 C.3     1  UNL1        0.0221
     30 C         138.7375  142.9021  165.1368 C.3     1  UNL1        0.0047
     31 C         137.6675  142.8990  164.0854 C.3     1  UNL1        0.0047
     32 C         138.4269  139.4005  166.1223 C.3     1  UNL1        0.0989
     33 N         141.2525  140.5436  169.4327 N.3     1  UNL1       -0.2682
     34 C         141.7443  140.4742  168.0174 C.3     1  UNL1        0.0897
     35 C         140.8025  140.0932  166.9138 C.3     1  UNL1        0.0899
     36 N         139.3688  139.7815  167.2257 N.3     1  UNL1       -0.2665
     37 C         138.8768  139.8509  168.6411 C.3     1  UNL1        0.0899
     38 C         139.8187  140.2319  169.7446 C.3     1  UNL1        0.0897
     39 C         142.1944  140.9246  170.5363 C.3     1  UNL1        0.1046
     40 C         142.2053  142.3297  171.0613 C.3     1  UNL1        0.1595
     41 C         140.4609  143.8945  169.9395 C.3     1  UNL1        0.1742
     42 O         141.8860  143.4746  170.1463 O.3     1  UNL1       -0.3496
@<TRIPOS>BOND
     1    41    42    1
     2    42    40    1
     3    40    39    1
     4    39    33    1
     5    33    34    1
     6    34    35    1
     7    35    36    1
     8    36    32    1
     9    32    23    1
    10    23    24   ar
    11    24    25   ar
    12    25    26   ar
    13    26     1    1
    14     1     2   am
    15     2     3    2
    16     2     5    1
    17     5     6   ar
    18     6     7   ar
    19     7     8   ar
    20     8     9    1
    21     8    10   ar
    22    10    12    1
    23    12    13    3
    24    13    14    1
    25    14    15   ar
    26    15    16   ar
    27    16    17   ar
    28    17    18   ar
    29    18    19   ar
    30    19    20   ar
    31    20    21   ar
    32    21    22   ar
    33    10    11   ar
    34    26    27   ar
    35    27    28   ar
    36    28    29    1
    37    29    30    1
    38    30    31    1
    39    36    37    1
    40    37    38    1
    41    38    33    1
    42    28    23   ar
    43    31    29    1
    44    11     5   ar
    45    22    14   ar
    46    22    17   ar
    47     1     4    1
@<TRIPOS>MOLECULE
*****
 42 47 0 0 0
SMALL
GASTEIGER

@<TRIPOS>ATOM
      1 N         138.7915  140.6815  159.5973 N.am    1  UNL1       -0.2804
      2 C         138.9309  141.3999  158.2880 C.2     1  UNL1        0.2495
      3 O         139.8287  142.5968  158.1810 O.2     1  UNL1       -0.2698
      4 H         138.2023  139.8959  159.6675 H       1  UNL1        0.1552
      5 C         138.1725  140.9215  157.0855 C.ar    1  UNL1        0.0543
      6 C         138.9023  140.2678  155.9496 C.ar    1  UNL1        0.0042
      7 C         138.1439  139.7894  154.7472 C.ar    1  UNL1       -0.0035
      8 C         136.6556  139.9646  154.6806 C.ar    1  UNL1       -0.0142
      9 C         135.8972  139.4861  153.4781 C.3     1  UNL1        0.0317
     10 C         135.9259  140.6182  155.8165 C.ar    1  UNL1        0.0382
     11 C         136.6843  141.0966  157.0189 C.ar    1  UNL1        0.0124
     12 C         134.4376  140.7933  155.7498 C.1     1  UNL1       -0.0585
     13 C         132.9493  140.9685  155.6831 C.1     1  UNL1       -0.0388
     14 C         131.4611  141.1436  155.6165 C.ar    1  UNL1        0.1451
     15 C         130.7188  142.0198  154.6515 C.ar    1  UNL1        0.1281
     16 N         129.2528  141.8910  154.9418 N.ar    1  UNL1       -0.2228
     17 C         129.0891  140.9352  156.0862 C.ar    1  UNL1        0.1646
     18 C         127.8736  140.4257  156.8024 C.ar    1  UNL1        0.0405
     19 C         128.0229  139.4544  157.9355 C.ar    1  UNL1        0.0256
     20 C         129.3877  138.9925  158.3525 C.ar    1  UNL1        0.1207
     21 N         130.6032  139.5019  157.6363 N.ar    1  UNL1       -0.1616
     22 N         130.4539  140.4732  156.5031 N.ar    1  UNL1       -0.2030
     23 C         141.0668  142.1168  163.2047 C.ar    1  UNL1       -0.0100
     24 C         141.6942  141.1288  162.2666 C.ar    1  UNL1       -0.0020
     25 C         140.9358  140.6503  161.0641 C.ar    1  UNL1        0.0144
     26 C         139.5499  141.1599  160.7998 C.ar    1  UNL1        0.0502
     27 C         138.9226  142.1479  161.7380 C.ar    1  UNL1        0.0101
     28 C         139.6810  142.6263  162.9404 C.ar    1  UNL1       -0.0239
     29 C         139.0536  143.6144  163.8786 C.3     1  UNL1        0.0221
     30 C         139.1639  144.8338  164.7451 C.3     1  UNL1        0.0047
     31 C         137.8566  144.1063  164.6370 C.3     1  UNL1        0.0047
     32 C         141.8252  142.5952  164.4072 C.3     1  UNL1        0.0989
     33 N         141.3397  140.4933  168.3563 N.3     1  UNL1       -0.2682
     34 C         142.4292  141.5083  168.1759 C.3     1  UNL1        0.0897
     35 C         142.5911  142.2090  166.8596 C.3     1  UNL1        0.0899
     36 N         141.6634  141.8946  165.7236 N.3     1  UNL1       -0.2665
     37 C         140.5738  140.8795  165.9039 C.3     1  UNL1        0.0899
     38 C         140.4120  140.1788  167.2203 C.3     1  UNL1        0.0897
     39 C         141.1779  139.7925  169.6727 C.3     1  UNL1        0.1046
     40 C         140.0103  140.1173  170.5567 C.3     1  UNL1        0.1595
     41 C         139.8235  142.7078  170.6199 C.3     1  UNL1        0.1742
     42 O         139.2172  141.3686  170.3219 O.3     1  UNL1       -0.3496
@<TRIPOS>BOND
     1    41    42    1
     2    42    40    1
     3    40    39    1
     4    39    33    1
     5    33    34    1
     6    34    35    1
     7    35    36    1
     8    36    32    1
     9    32    23    1
    10    23    24   ar
    11    24    25   ar
    12    25    26   ar
    13    26     1    1
    14     1     2   am
    15     2     3    2
    16     2     5    1
    17     5     6   ar
    18     6     7   ar
    19     7     8   ar
    20     8     9    1
    21     8    10   ar
    22    10    12    1
    23    12    13    3
    24    13    14    1
    25    14    15   ar
    26    15    16   ar
    27    16    17   ar
    28    17    18   ar
    29    18    19   ar
    30    19    20   ar
    31    20    21   ar
    32    21    22   ar
    33    10    11   ar
    34    26    27   ar
    35    27    28   ar
    36    28    29    1
    37    29    30    1
    38    30    31    1
    39    36    37    1
    40    37    38    1
    41    38    33    1
    42    28    23   ar
    43    31    29    1
    44    11     5   ar
    45    22    14   ar
    46    22    17   ar
    47     1     4    1
@<TRIPOS>MOLECULE
*****
 42 47 0 0 0
SMALL
GASTEIGER

@<TRIPOS>ATOM
      1 N         140.2161  139.7687  159.7287 N.am    1  UNL1       -0.2804
      2 C         139.7715  140.4658  158.4771 C.2     1  UNL1        0.2495
      3 O         139.6208  141.9582  158.4629 O.2     1  UNL1       -0.2698
      4 H         140.3150  138.7892  159.7380 H       1  UNL1        0.1552
      5 C         139.4775  139.6705  157.2398 C.ar    1  UNL1        0.0543
      6 C         138.4305  140.1434  156.2752 C.ar    1  UNL1        0.0042
      7 C         138.1366  139.3481  155.0379 C.ar    1  UNL1       -0.0035
      8 C         138.8896  138.0798  154.7650 C.ar    1  UNL1       -0.0142
      9 C         138.5956  137.2846  153.5276 C.3     1  UNL1        0.0317
     10 C         139.9365  137.6069  155.7295 C.ar    1  UNL1        0.0382
     11 C         140.2305  138.4022  156.9668 C.ar    1  UNL1        0.0124
     12 C         140.6895  136.3386  155.4565 C.1     1  UNL1       -0.0585
     13 C         141.4425  135.0704  155.1835 C.1     1  UNL1       -0.0388
     14 C         142.1955  133.8021  154.9106 C.ar    1  UNL1        0.1451
     15 C         142.0606  132.9421  153.6890 C.ar    1  UNL1        0.1281
     16 N         142.9973  131.7797  153.8348 N.ar    1  UNL1       -0.2228
     17 C         143.7111  131.9212  155.1465 C.ar    1  UNL1        0.1646
     18 C         144.7482  131.0733  155.8214 C.ar    1  UNL1        0.0405
     19 C         145.2898  131.4754  157.1611 C.ar    1  UNL1        0.0256
     20 C         144.7942  132.7254  157.8260 C.ar    1  UNL1        0.1207
     21 N         143.7571  133.5732  157.1511 N.ar    1  UNL1       -0.1616
     22 N         143.2155  133.1711  155.8114 N.ar    1  UNL1       -0.2030
     23 C         141.0981  142.1546  163.4408 C.ar    1  UNL1       -0.0100
     24 C         142.1435  141.2436  162.8688 C.ar    1  UNL1       -0.0020
     25 C         141.8494  140.4483  161.6314 C.ar    1  UNL1        0.0144
     26 C         140.5101  140.5640  160.9660 C.ar    1  UNL1        0.0502
     27 C         139.4648  141.4750  161.5381 C.ar    1  UNL1        0.0101
     28 C         139.7587  142.2703  162.7754 C.ar    1  UNL1       -0.0239
     29 C         138.7133  143.1813  163.3474 C.3     1  UNL1        0.0221
     30 C         137.8179  144.3772  163.2127 C.3     1  UNL1        0.0047
     31 C         137.7981  143.5634  164.4727 C.3     1  UNL1        0.0047
     32 C         141.3921  142.9499  164.6782 C.3     1  UNL1        0.0989
     33 N         141.2036  140.9771  168.7183 N.3     1  UNL1       -0.2682
     34 C         142.4533  141.6860  168.2873 C.3     1  UNL1        0.0897
     35 C         142.5162  142.3436  166.9407 C.3     1  UNL1        0.0899
     36 N         141.3293  142.2923  166.0249 N.3     1  UNL1       -0.2665
     37 C         140.0795  141.5834  166.4558 C.3     1  UNL1        0.0899
     38 C         140.0167  140.9258  167.8025 C.3     1  UNL1        0.0897
     39 C         141.1408  140.3195  170.0651 C.3     1  UNL1        0.1046
     40 C         141.5380  141.0847  171.2926 C.3     1  UNL1        0.1595
     41 C         139.7078  142.8840  170.8895 C.3     1  UNL1        0.1742
     42 O         140.6515  142.1758  171.8156 O.3     1  UNL1       -0.3496
@<TRIPOS>BOND
     1    41    42    1
     2    42    40    1
     3    40    39    1
     4    39    33    1
     5    33    34    1
     6    34    35    1
     7    35    36    1
     8    36    32    1
     9    32    23    1
    10    23    24   ar
    11    24    25   ar
    12    25    26   ar
    13    26     1    1
    14     1     2   am
    15     2     3    2
    16     2     5    1
    17     5     6   ar
    18     6     7   ar
    19     7     8   ar
    20     8     9    1
    21     8    10   ar
    22    10    12    1
    23    12    13    3
    24    13    14    1
    25    14    15   ar
    26    15    16   ar
    27    16    17   ar
    28    17    18   ar
    29    18    19   ar
    30    19    20   ar
    31    20    21   ar
    32    21    22   ar
    33    10    11   ar
    34    26    27   ar
    35    27    28   ar
    36    28    29    1
    37    29    30    1
    38    30    31    1
    39    36    37    1
    40    37    38    1
    41    38    33    1
    42    28    23   ar
    43    31    29    1
    44    11     5   ar
    45    22    14   ar
    46    22    17   ar
    47     1     4    1
@<TRIPOS>MOLECULE
*****
 42 47 0 0 0
SMALL
GASTEIGER

@<TRIPOS>ATOM
      1 N         141.5174  139.2320  158.9295 N.am    1  UNL1       -0.2804
      2 C         142.4776  138.9713  157.8070 C.2     1  UNL1        0.2495
      3 O         143.8602  139.5514  157.8526 O.2     1  UNL1       -0.2698
      4 H         140.6100  138.8513  158.8995 H       1  UNL1        0.1552
      5 C         142.0552  138.1305  156.6388 C.ar    1  UNL1        0.0543
      6 C         141.5236  138.7839  155.3976 C.ar    1  UNL1        0.0042
      7 C         141.1013  137.9431  154.2295 C.ar    1  UNL1       -0.0035
      8 C         141.2105  136.4488  154.3024 C.ar    1  UNL1       -0.0142
      9 C         140.7882  135.6080  153.1342 C.3     1  UNL1        0.0317
     10 C         141.7421  135.7955  155.5436 C.ar    1  UNL1        0.0382
     11 C         142.1645  136.6363  156.7117 C.ar    1  UNL1        0.0124
     12 C         141.8514  134.3012  155.6165 C.1     1  UNL1       -0.0585
     13 C         141.9607  132.8070  155.6894 C.1     1  UNL1       -0.0388
     14 C         142.0699  131.3127  155.7623 C.ar    1  UNL1        0.1451
     15 C         141.2659  130.3299  154.9638 C.ar    1  UNL1        0.1281
     16 N         141.7015  128.9488  155.3546 N.ar    1  UNL1       -0.2228
     17 C         142.7747  129.0780  156.3946 C.ar    1  UNL1        0.1646
     18 C         143.5740  128.0540  157.1446 C.ar    1  UNL1        0.0405
     19 C         144.6010  128.4911  158.1467 C.ar    1  UNL1        0.0256
     20 C         144.8287  129.9522  158.3987 C.ar    1  UNL1        0.1207
     21 N         144.0294  130.9761  157.6486 N.ar    1  UNL1       -0.1616
     22 N         143.0024  130.5390  156.6466 N.ar    1  UNL1       -0.2030
     23 C         142.7845  141.7545  162.4341 C.ar    1  UNL1       -0.0100
     24 C         142.0842  142.3877  161.2685 C.ar    1  UNL1       -0.0020
     25 C         141.6618  141.5468  160.1003 C.ar    1  UNL1        0.0144
     26 C         141.9398  140.0728  160.0977 C.ar    1  UNL1        0.0502
     27 C         142.6401  139.4397  161.2633 C.ar    1  UNL1        0.0101
     28 C         143.0625  140.2805  162.4314 C.ar    1  UNL1       -0.0239
     29 C         143.7628  139.6473  163.5970 C.3     1  UNL1        0.0221
     30 C         145.0220  139.3811  164.3676 C.3     1  UNL1        0.0047
     31 C         143.7168  138.8167  164.8452 C.3     1  UNL1        0.0047
     32 C         143.2069  142.5953  163.6022 C.3     1  UNL1        0.0989
     33 N         141.1260  142.1461  167.5668 N.3     1  UNL1       -0.2682
     34 C         142.6245  142.1370  167.5010 C.3     1  UNL1        0.0897
     35 C         143.3182  142.2868  166.1795 C.3     1  UNL1        0.0899
     36 N         142.5133  142.4456  164.9238 N.3     1  UNL1       -0.2665
     37 C         141.0147  142.4547  164.9895 C.3     1  UNL1        0.0899
     38 C         140.3211  142.3049  166.3111 C.3     1  UNL1        0.0897
     39 C         140.4324  141.9964  168.8884 C.3     1  UNL1        0.1046
     40 C         139.6244  140.7658  169.1762 C.3     1  UNL1        0.1595
     41 C         141.7291  139.5042  170.0297 C.3     1  UNL1        0.1742
     42 O         140.2370  139.6273  169.9368 O.3     1  UNL1       -0.3496
@<TRIPOS>BOND
     1    41    42    1
     2    42    40    1
     3    40    39    1
     4    39    33    1
     5    33    34    1
     6    34    35    1
     7    35    36    1
     8    36    32    1
     9    32    23    1
    10    23    24   ar
    11    24    25   ar
    12    25    26   ar
    13    26     1    1
    14     1     2   am
    15     2     3    2
    16     2     5    1
    17     5     6   ar
    18     6     7   ar
    19     7     8   ar
    20     8     9    1
    21     8    10   ar
    22    10    12    1
    23    12    13    3
    24    13    14    1
    25    14    15   ar
    26    15    16   ar
    27    16    17   ar
    28    17    18   ar
    29    18    19   ar
    30    19    20   ar
    31    20    21   ar
    32    21    22   ar
    33    10    11   ar
    34    26    27   ar
    35    27    28   ar
    36    28    29    1
    37    29    30    1
    38    30    31    1
    39    36    37    1
    40    37    38    1
    41    38    33    1
    42    28    23   ar
    43    31    29    1
    44    11     5   ar
    45    22    14   ar
    46    22    17   ar
    47     1     4    1
@<TRIPOS>MOLECULE
*****
 42 47 0 0 0
SMALL
GASTEIGER

@<TRIPOS>ATOM
      1 N         138.4104  141.4439  158.9062 N.am    1  UNL1       -0.2804
      2 C         138.8001  140.8791  157.5723 C.2     1  UNL1        0.2495
      3 O         140.1080  140.1615  157.4148 O.2     1  UNL1       -0.2698
      4 H         137.5520  141.9149  159.0095 H       1  UNL1        0.1552
      5 C         137.8821  141.0318  156.3960 C.ar    1  UNL1        0.0543
      6 C         138.4495  141.2625  155.0267 C.ar    1  UNL1        0.0042
      7 C         137.5314  141.4152  153.8504 C.ar    1  UNL1       -0.0035
      8 C         136.0459  141.3373  154.0432 C.ar    1  UNL1       -0.0142
      9 C         135.1279  141.4901  152.8669 C.3     1  UNL1        0.0317
     10 C         135.4785  141.1067  155.4125 C.ar    1  UNL1        0.0382
     11 C         136.3966  140.9540  156.5888 C.ar    1  UNL1        0.0124
     12 C         133.9930  141.0288  155.6053 C.1     1  UNL1       -0.0585
     13 C         132.5075  140.9508  155.7982 C.1     1  UNL1       -0.0388
     14 C         131.0220  140.8729  155.9910 C.ar    1  UNL1        0.1451
     15 C         129.9969  141.7172  155.2936 C.ar    1  UNL1        0.1281
     16 N         128.6421  141.3031  155.7867 N.ar    1  UNL1       -0.2228
     17 C         128.8299  140.2029  156.7889 C.ar    1  UNL1        0.1646
     18 C         127.8517  139.4089  157.6028 C.ar    1  UNL1        0.0405
     19 C         128.3442  138.3490  158.5430 C.ar    1  UNL1        0.0256
     20 C         129.8151  138.0832  158.6692 C.ar    1  UNL1        0.1207
     21 N         130.7933  138.8772  157.8553 N.ar    1  UNL1       -0.1616
     22 N         130.3008  139.9371  156.9152 N.ar    1  UNL1       -0.2030
     23 C         141.1646  140.9858  162.4353 C.ar    1  UNL1       -0.0100
     24 C         141.2072  142.2363  161.6081 C.ar    1  UNL1       -0.0020
     25 C         140.2891  142.3890  160.4317 C.ar    1  UNL1        0.0144
     26 C         139.3284  141.2912  160.0825 C.ar    1  UNL1        0.0502
     27 C         139.2859  140.0407  160.9097 C.ar    1  UNL1        0.0101
     28 C         140.2039  139.8879  162.0861 C.ar    1  UNL1       -0.0239
     29 C         140.1613  138.6373  162.9133 C.3     1  UNL1        0.0221
     30 C         140.7397  137.3032  163.2817 C.3     1  UNL1        0.0047
     31 C         139.5093  137.8054  163.9775 C.3     1  UNL1        0.0047
     32 C         142.0826  140.8330  163.6117 C.3     1  UNL1        0.0989
     33 N         140.6433  141.8928  167.7414 N.3     1  UNL1       -0.2682
     34 C         140.3347  142.7965  166.5847 C.3     1  UNL1        0.0897
     35 C         140.8144  142.4433  165.2081 C.3     1  UNL1        0.0899
     36 N         141.6028  141.1863  164.9883 N.3     1  UNL1       -0.2665
     37 C         141.9116  140.2825  166.1450 C.3     1  UNL1        0.0899
     38 C         141.4318  140.6358  167.5216 C.3     1  UNL1        0.0897
     39 C         140.1636  142.2461  169.1181 C.3     1  UNL1        0.1046
     40 C         140.4320  143.6114  169.6785 C.3     1  UNL1        0.1595
     41 C         142.8112  142.8544  170.3966 C.3     1  UNL1        0.1742
     42 O         141.7313  143.8951  170.3721 O.3     1  UNL1       -0.3496
@<TRIPOS>BOND
     1    41    42    1
     2    42    40    1
     3    40    39    1
     4    39    33    1
     5    33    34    1
     6    34    35    1
     7    35    36    1
     8    36    32    1
     9    32    23    1
    10    23    24   ar
    11    24    25   ar
    12    25    26   ar
    13    26     1    1
    14     1     2   am
    15     2     3    2
    16     2     5    1
    17     5     6   ar
    18     6     7   ar
    19     7     8   ar
    20     8     9    1
    21     8    10   ar
    22    10    12    1
    23    12    13    3
    24    13    14    1
    25    14    15   ar
    26    15    16   ar
    27    16    17   ar
    28    17    18   ar
    29    18    19   ar
    30    19    20   ar
    31    20    21   ar
    32    21    22   ar
    33    10    11   ar
    34    26    27   ar
    35    27    28   ar
    36    28    29    1
    37    29    30    1
    38    30    31    1
    39    36    37    1
    40    37    38    1
    41    38    33    1
    42    28    23   ar
    43    31    29    1
    44    11     5   ar
    45    22    14   ar
    46    22    17   ar
    47     1     4    1
