@<TRIPOS>MOLECULE
*****
 31 36 0 0 0
SMALL
GASTEIGER

@<TRIPOS>ATOM
      1 C         139.5980  138.8550  162.5870 C.ar    1  UNL1        0.0884
      2 C         139.0300  137.6669  163.3052 C.ar    1  UNL1        0.0197
      3 C         138.8158  137.7192  164.7888 C.ar    1  UNL1        0.0030
      4 C         139.1694  138.9597  165.5545 C.ar    1  UNL1        0.0174
      5 C         138.9552  139.0121  167.0381 C.ar    1  UNL1       -0.0027
      6 C         139.3089  140.2526  167.8036 C.ar    1  UNL1       -0.0207
      7 C         139.8768  141.4408  167.0855 C.ar    1  UNL1       -0.0027
      8 C         140.0910  141.3884  165.6018 C.ar    1  UNL1        0.0188
      9 C         139.7374  140.1479  164.8363 C.ar    1  UNL1        0.0812
     10 N         139.9516  140.0955  163.3525 N.ar    1  UNL1       -0.2448
     11 C         142.3113  137.8547  161.0750 C.3     1  UNL1        0.0510
     12 C         141.0595  138.3429  160.4083 C.ar    1  UNL1        0.0511
     13 C         139.8122  138.8027  161.1033 C.ar    1  UNL1        0.0619
     14 S         138.8170  139.2010  160.0541 S.2     1  UNL1       -0.0474
     15 C         139.4491  138.9874  158.7107 C.ar    1  UNL1        0.1792
     16 N         139.2246  139.1015  157.2320 N.ar    1  UNL1       -0.2206
     17 C         140.4718  138.6416  156.5370 C.ar    1  UNL1        0.0995
     18 C         140.8298  138.5342  155.0843 C.ar    1  UNL1        0.0207
     19 C         142.1831  138.0284  154.6808 C.ar    1  UNL1        0.0016
     20 C         143.1783  137.6301  155.7300 C.ar    1  UNL1        0.0016
     21 C         142.8204  137.7375  157.1827 C.ar    1  UNL1        0.0191
     22 C         141.4671  138.2433  157.5861 C.ar    1  UNL1        0.0831
     23 N         140.8350  138.4570  158.9296 N.ar    1  UNL1       -0.2883
     24 C         139.0946  140.3049  169.2873 C.3     1  UNL1        0.0437
     25 C         140.2584  140.1414  170.2194 C.3     1  UNL1        0.0768
     26 N         141.4450  141.0520  170.1046 N.3     1  UNL1       -0.2737
     27 C         141.6427  142.3403  170.8469 C.3     1  UNL1        0.0721
     28 C         142.9620  142.9186  170.4284 C.3     1  UNL1        0.0187
     29 C         143.5795  141.9876  169.4274 C.3     1  UNL1        0.0174
     30 C         142.6420  140.8340  169.2273 C.3     1  UNL1        0.0576
     31 C         142.8626  139.6672  168.3109 C.3     1  UNL1        0.0173
@<TRIPOS>BOND
     1    11    12    1
     2    12    13   ar
     3    13     1    1
     4     1     2   ar
     5     2     3   ar
     6     3     4   ar
     7     4     5   ar
     8     5     6   ar
     9     6    24    1
    10    24    25    1
    11    25    26    1
    12    26    27    1
    13    27    28    1
    14    28    29    1
    15    29    30    1
    16    30    31    1
    17     6     7   ar
    18     7     8   ar
    19     8     9   ar
    20     9    10   ar
    21    13    14   ar
    22    14    15   ar
    23    15    16   ar
    24    16    17   ar
    25    17    18   ar
    26    18    19   ar
    27    19    20   ar
    28    20    21   ar
    29    21    22   ar
    30    22    23   ar
    31    23    12   ar
    32    10     1   ar
    33    23    15   ar
    34     9     4   ar
    35    22    17   ar
    36    30    26    1
@<TRIPOS>MOLECULE
*****
 31 36 0 0 0
SMALL
GASTEIGER

@<TRIPOS>ATOM
      1 C         141.9409  143.2098  162.9113 C.ar    1  UNL1        0.0884
      2 C         143.1327  143.6932  163.6832 C.ar    1  UNL1        0.0197
      3 C         143.5086  143.0305  164.9753 C.ar    1  UNL1        0.0030
      4 C         142.6926  141.8844  165.4956 C.ar    1  UNL1        0.0174
      5 C         143.0684  141.2217  166.7876 C.ar    1  UNL1       -0.0027
      6 C         142.2524  140.0756  167.3078 C.ar    1  UNL1       -0.0207
      7 C         141.0605  139.5922  166.5359 C.ar    1  UNL1       -0.0027
      8 C         140.6848  140.2549  165.2438 C.ar    1  UNL1        0.0188
      9 C         141.5007  141.4010  164.7236 C.ar    1  UNL1        0.0812
     10 N         141.1249  142.0637  163.4315 N.ar    1  UNL1       -0.2448
     11 C         143.4189  142.7793  160.0339 C.3     1  UNL1        0.0510
     12 C         142.2445  143.6746  160.2966 C.ar    1  UNL1        0.0511
     13 C         141.5650  143.8725  161.6192 C.ar    1  UNL1        0.0619
     14 S         140.4438  144.8494  161.4228 S.2     1  UNL1       -0.0474
     15 C         140.4303  145.2553  159.9788 C.ar    1  UNL1        0.1792
     16 N         139.7290  146.1098  158.9650 N.ar    1  UNL1       -0.2206
     17 C         140.4083  145.9120  157.6423 C.ar    1  UNL1        0.0995
     18 C         140.1509  146.4951  156.2846 C.ar    1  UNL1        0.0207
     19 C         141.0146  146.1013  155.1232 C.ar    1  UNL1        0.0016
     20 C         142.1358  145.1244  155.3196 C.ar    1  UNL1        0.0016
     21 C         142.3933  144.5413  156.6773 C.ar    1  UNL1        0.0191
     22 C         141.5295  144.9351  157.8387 C.ar    1  UNL1        0.0831
     23 N         141.5431  144.5292  159.2827 N.ar    1  UNL1       -0.2883
     24 C         142.6283  139.4129  168.5999 C.3     1  UNL1        0.0437
     25 C         142.5683  140.1855  169.8843 C.3     1  UNL1        0.0768
     26 N         141.7640  141.4493  169.9625 N.3     1  UNL1       -0.2737
     27 C         142.3152  142.8432  170.0163 C.3     1  UNL1        0.0721
     28 C         141.1591  143.7963  170.0877 C.3     1  UNL1        0.0187
     29 C         139.8935  142.9913  170.0780 C.3     1  UNL1        0.0174
     30 C         140.2673  141.5408  170.0007 C.3     1  UNL1        0.0576
     31 C         139.3122  140.3847  169.9673 C.3     1  UNL1        0.0173
@<TRIPOS>BOND
     1    11    12    1
     2    12    13   ar
     3    13     1    1
     4     1     2   ar
     5     2     3   ar
     6     3     4   ar
     7     4     5   ar
     8     5     6   ar
     9     6    24    1
    10    24    25    1
    11    25    26    1
    12    26    27    1
    13    27    28    1
    14    28    29    1
    15    29    30    1
    16    30    31    1
    17     6     7   ar
    18     7     8   ar
    19     8     9   ar
    20     9    10   ar
    21    13    14   ar
    22    14    15   ar
    23    15    16   ar
    24    16    17   ar
    25    17    18   ar
    26    18    19   ar
    27    19    20   ar
    28    20    21   ar
    29    21    22   ar
    30    22    23   ar
    31    23    12   ar
    32    10     1   ar
    33    23    15   ar
    34     9     4   ar
    35    22    17   ar
    36    30    26    1
@<TRIPOS>MOLECULE
*****
 31 36 0 0 0
SMALL
GASTEIGER

@<TRIPOS>ATOM
      1 C         140.1024  139.5897  162.7849 C.ar    1  UNL1        0.0884
      2 C         141.0212  140.6388  163.3373 C.ar    1  UNL1        0.0197
      3 C         140.9800  140.9782  164.7978 C.ar    1  UNL1        0.0030
      4 C         140.0198  140.2685  165.7059 C.ar    1  UNL1        0.0174
      5 C         139.9785  140.6079  167.1664 C.ar    1  UNL1       -0.0027
      6 C         139.0184  139.8982  168.0744 C.ar    1  UNL1       -0.0207
      7 C         138.0996  138.8491  167.5220 C.ar    1  UNL1       -0.0027
      8 C         138.1409  138.5098  166.0615 C.ar    1  UNL1        0.0188
      9 C         139.1010  139.2194  165.1535 C.ar    1  UNL1        0.0812
     10 N         139.1423  138.8800  163.6929 N.ar    1  UNL1       -0.2448
     11 C         142.5259  138.0407  161.2433 C.3     1  UNL1        0.0510
     12 C         141.2577  138.5382  160.6158 C.ar    1  UNL1        0.0511
     13 C         140.1436  139.2502  161.3243 C.ar    1  UNL1        0.0619
     14 S         139.0781  139.5632  160.3160 S.2     1  UNL1       -0.0474
     15 C         139.5336  139.0446  158.9842 C.ar    1  UNL1        0.1792
     16 N         139.1567  138.9175  157.5379 N.ar    1  UNL1       -0.2206
     17 C         140.2707  138.2055  156.8294 C.ar    1  UNL1        0.0995
     18 C         140.4525  137.8017  155.3962 C.ar    1  UNL1        0.0207
     19 C         141.6998  137.0850  154.9715 C.ar    1  UNL1        0.0016
     20 C         142.7653  136.7720  155.9799 C.ar    1  UNL1        0.0016
     21 C         142.5835  137.1758  157.4130 C.ar    1  UNL1        0.0191
     22 C         141.3362  137.8926  157.8377 C.ar    1  UNL1        0.0831
     23 N         140.8806  138.4111  159.1695 N.ar    1  UNL1       -0.2883
     24 C         138.9772  140.2377  169.5349 C.3     1  UNL1        0.0437
     25 C         140.2042  140.0642  170.3802 C.3     1  UNL1        0.0768
     26 N         141.3727  140.9883  170.2046 N.3     1  UNL1       -0.2737
     27 C         142.8033  140.5758  170.0225 C.3     1  UNL1        0.0721
     28 C         143.6304  141.8197  169.8856 C.3     1  UNL1        0.0187
     29 C         142.7109  143.0008  169.9831 C.3     1  UNL1        0.0174
     30 C         141.3156  142.4870  170.1802 C.3     1  UNL1        0.0576
     31 C         140.0800  143.3247  170.3273 C.3     1  UNL1        0.0173
@<TRIPOS>BOND
     1    11    12    1
     2    12    13   ar
     3    13     1    1
     4     1     2   ar
     5     2     3   ar
     6     3     4   ar
     7     4     5   ar
     8     5     6   ar
     9     6    24    1
    10    24    25    1
    11    25    26    1
    12    26    27    1
    13    27    28    1
    14    28    29    1
    15    29    30    1
    16    30    31    1
    17     6     7   ar
    18     7     8   ar
    19     8     9   ar
    20     9    10   ar
    21    13    14   ar
    22    14    15   ar
    23    15    16   ar
    24    16    17   ar
    25    17    18   ar
    26    18    19   ar
    27    19    20   ar
    28    20    21   ar
    29    21    22   ar
    30    22    23   ar
    31    23    12   ar
    32    10     1   ar
    33    23    15   ar
    34     9     4   ar
    35    22    17   ar
    36    30    26    1
@<TRIPOS>MOLECULE
*****
 31 36 0 0 0
SMALL
GASTEIGER

@<TRIPOS>ATOM
      1 C         141.3464  139.0309  163.1909 C.ar    1  UNL1        0.0884
      2 C         142.7183  138.4613  162.9818 C.ar    1  UNL1        0.0197
      3 C         143.1498  138.0283  161.6121 C.ar    1  UNL1        0.0030
      4 C         142.2095  138.1649  160.4513 C.ar    1  UNL1        0.0174
      5 C         142.6410  137.7319  159.0815 C.ar    1  UNL1       -0.0027
      6 C         141.7007  137.8685  157.9209 C.ar    1  UNL1       -0.0207
      7 C         140.3289  138.4381  158.1300 C.ar    1  UNL1       -0.0027
      8 C         139.8974  138.8711  159.4997 C.ar    1  UNL1        0.0188
      9 C         140.8377  138.7345  160.6604 C.ar    1  UNL1        0.0812
     10 N         140.4062  139.1675  162.0302 N.ar    1  UNL1       -0.2448
     11 C         142.3448  141.7137  164.7578 C.3     1  UNL1        0.0510
     12 C         141.3739  140.6971  165.2809 C.ar    1  UNL1        0.0511
     13 C         140.9149  139.4639  164.5607 C.ar    1  UNL1        0.0619
     14 S         139.9487  138.7398  165.4507 S.2     1  UNL1       -0.0474
     15 C         139.8105  139.5255  166.7210 C.ar    1  UNL1        0.1792
     16 N         139.1279  139.5636  168.0561 N.ar    1  UNL1       -0.2206
     17 C         139.5868  140.7967  168.7764 C.ar    1  UNL1        0.0995
     18 C         139.2497  141.3538  170.1277 C.ar    1  UNL1        0.0207
     19 C         139.8788  142.6350  170.5889 C.ar    1  UNL1        0.0016
     20 C         140.8450  143.3591  169.6989 C.ar    1  UNL1        0.0016
     21 C         141.1821  142.8020  168.3476 C.ar    1  UNL1        0.0191
     22 C         140.5530  141.5208  167.8864 C.ar    1  UNL1        0.0831
     23 N         140.6912  140.7351  166.6161 N.ar    1  UNL1       -0.2883
     24 C         142.1323  137.4355  156.5511 C.3     1  UNL1        0.0437
     25 C         143.1014  136.3015  156.3936 C.3     1  UNL1        0.0768
     26 N         142.5959  134.9142  156.1291 N.3     1  UNL1       -0.2737
     27 C         141.4980  134.5425  155.1771 C.3     1  UNL1        0.0721
     28 C         141.3232  133.0536  155.2299 C.3     1  UNL1        0.0187
     29 C         142.3131  132.5052  156.2145 C.3     1  UNL1        0.0174
     30 C         143.0996  133.6551  156.7702 C.3     1  UNL1        0.0576
     31 C         144.1973  133.5624  157.7883 C.3     1  UNL1        0.0173
@<TRIPOS>BOND
     1    11    12    1
     2    12    13   ar
     3    13     1    1
     4     1     2   ar
     5     2     3   ar
     6     3     4   ar
     7     4     5   ar
     8     5     6   ar
     9     6    24    1
    10    24    25    1
    11    25    26    1
    12    26    27    1
    13    27    28    1
    14    28    29    1
    15    29    30    1
    16    30    31    1
    17     6     7   ar
    18     7     8   ar
    19     8     9   ar
    20     9    10   ar
    21    13    14   ar
    22    14    15   ar
    23    15    16   ar
    24    16    17   ar
    25    17    18   ar
    26    18    19   ar
    27    19    20   ar
    28    20    21   ar
    29    21    22   ar
    30    22    23   ar
    31    23    12   ar
    32    10     1   ar
    33    23    15   ar
    34     9     4   ar
    35    22    17   ar
    36    30    26    1
@<TRIPOS>MOLECULE
*****
 31 36 0 0 0
SMALL
GASTEIGER

@<TRIPOS>ATOM
      1 C         142.2678  143.4558  161.6007 C.ar    1  UNL1        0.0884
      2 C         142.9680  144.3160  162.6106 C.ar    1  UNL1        0.0197
      3 C         143.2145  143.7967  163.9961 C.ar    1  UNL1        0.0030
      4 C         142.7609  142.4171  164.3717 C.ar    1  UNL1        0.0174
      5 C         143.0074  141.8977  165.7571 C.ar    1  UNL1       -0.0027
      6 C         142.5538  140.5182  166.1326 C.ar    1  UNL1       -0.0207
      7 C         141.8536  139.6580  165.1227 C.ar    1  UNL1       -0.0027
      8 C         141.6071  140.1773  163.7374 C.ar    1  UNL1        0.0188
      9 C         142.0607  141.5569  163.3618 C.ar    1  UNL1        0.0812
     10 N         141.8142  142.0763  161.9763 N.ar    1  UNL1       -0.2448
     11 C         140.0620  145.7095  160.7614 C.3     1  UNL1        0.0510
     12 C         141.0073  145.0111  159.8295 C.ar    1  UNL1        0.0511
     13 C         142.0213  143.9752  160.2153 C.ar    1  UNL1        0.0619
     14 S         142.7454  143.5498  158.9724 S.2     1  UNL1       -0.0474
     15 C         142.1789  144.3228  157.8184 C.ar    1  UNL1        0.1792
     16 N         142.2763  144.5377  156.3371 N.ar    1  UNL1       -0.2206
     17 C         141.2624  145.5736  155.9513 C.ar    1  UNL1        0.0995
     18 C         140.9049  146.1845  154.6288 C.ar    1  UNL1        0.0207
     19 C         139.8234  147.2208  154.5492 C.ar    1  UNL1        0.0016
     20 C         139.0993  147.6461  155.7921 C.ar    1  UNL1        0.0016
     21 C         139.4568  147.0353  157.1146 C.ar    1  UNL1        0.0191
     22 C         140.5383  145.9990  157.1942 C.ar    1  UNL1        0.0831
     23 N         141.1048  145.2260  158.3481 N.ar    1  UNL1       -0.2883
     24 C         142.8003  139.9988  167.5181 C.3     1  UNL1        0.0437
     25 C         141.6817  139.9661  168.5169 C.3     1  UNL1        0.0768
     26 N         141.2095  141.2384  169.1561 N.3     1  UNL1       -0.2737
     27 C         141.9716  142.5287  169.2198 C.3     1  UNL1        0.0721
     28 C         141.1253  143.5314  169.9469 C.3     1  UNL1        0.0187
     29 C         139.8402  142.8607  170.3324 C.3     1  UNL1        0.0174
     30 C         139.8922  141.4436  169.8437 C.3     1  UNL1        0.0576
     31 C         138.8159  140.4125  170.0127 C.3     1  UNL1        0.0173
@<TRIPOS>BOND
     1    11    12    1
     2    12    13   ar
     3    13     1    1
     4     1     2   ar
     5     2     3   ar
     6     3     4   ar
     7     4     5   ar
     8     5     6   ar
     9     6    24    1
    10    24    25    1
    11    25    26    1
    12    26    27    1
    13    27    28    1
    14    28    29    1
    15    29    30    1
    16    30    31    1
    17     6     7   ar
    18     7     8   ar
    19     8     9   ar
    20     9    10   ar
    21    13    14   ar
    22    14    15   ar
    23    15    16   ar
    24    16    17   ar
    25    17    18   ar
    26    18    19   ar
    27    19    20   ar
    28    20    21   ar
    29    21    22   ar
    30    22    23   ar
    31    23    12   ar
    32    10     1   ar
    33    23    15   ar
    34     9     4   ar
    35    22    17   ar
    36    30    26    1
@<TRIPOS>MOLECULE
*****
 31 36 0 0 0
SMALL
GASTEIGER

@<TRIPOS>ATOM
      1 C         140.2334  139.8827  161.9509 C.ar    1  UNL1        0.0884
      2 C         138.9659  139.9281  161.1500 C.ar    1  UNL1        0.0197
      3 C         138.9245  139.3267  159.7765 C.ar    1  UNL1        0.0030
      4 C         140.1507  138.6798  159.2037 C.ar    1  UNL1        0.0174
      5 C         140.1094  138.0785  157.8302 C.ar    1  UNL1       -0.0027
      6 C         141.3356  137.4316  157.2575 C.ar    1  UNL1       -0.0207
      7 C         142.6032  137.3861  158.0583 C.ar    1  UNL1       -0.0027
      8 C         142.6445  137.9875  159.4318 C.ar    1  UNL1        0.0188
      9 C         141.4183  138.6344  160.0045 C.ar    1  UNL1        0.0812
     10 N         141.4596  139.2358  161.3781 N.ar    1  UNL1       -0.2448
     11 C         139.3435  138.4033  164.7201 C.3     1  UNL1        0.0510
     12 C         139.8657  139.8039  164.5973 C.ar    1  UNL1        0.0511
     13 C         140.2748  140.4840  163.3244 C.ar    1  UNL1        0.0619
     14 S         140.7325  141.8710  163.6662 S.2     1  UNL1       -0.0474
     15 C         140.6063  142.0482  165.1504 C.ar    1  UNL1        0.1792
     16 N         140.8111  143.0148  166.2789 N.ar    1  UNL1       -0.2206
     17 C         140.4021  142.3348  167.5518 C.ar    1  UNL1        0.0995
     18 C         140.3872  142.7993  168.9779 C.ar    1  UNL1        0.0207
     19 C         139.9147  141.8769  170.0623 C.ar    1  UNL1        0.0016
     20 C         139.4570  140.4900  169.7204 C.ar    1  UNL1        0.0016
     21 C         139.4718  140.0254  168.2943 C.ar    1  UNL1        0.0191
     22 C         139.9444  140.9478  167.2100 C.ar    1  UNL1        0.0831
     23 N         140.0706  140.7707  165.7258 N.ar    1  UNL1       -0.2883
     24 C         141.2942  136.8302  155.8840 C.3     1  UNL1        0.0437
     25 C         142.3911  135.9111  155.4343 C.3     1  UNL1        0.0768
     26 N         142.2030  134.4249  155.5115 N.3     1  UNL1       -0.2737
     27 C         141.3434  133.5967  154.6032 C.3     1  UNL1        0.0721
     28 C         141.4507  132.1659  155.0410 C.3     1  UNL1        0.0187
     29 C         142.3766  132.1100  156.2198 C.3     1  UNL1        0.0174
     30 C         142.8415  133.5061  156.5105 C.3     1  UNL1        0.0576
     31 C         143.7803  133.9123  157.6078 C.3     1  UNL1        0.0173
@<TRIPOS>BOND
     1    11    12    1
     2    12    13   ar
     3    13     1    1
     4     1     2   ar
     5     2     3   ar
     6     3     4   ar
     7     4     5   ar
     8     5     6   ar
     9     6    24    1
    10    24    25    1
    11    25    26    1
    12    26    27    1
    13    27    28    1
    14    28    29    1
    15    29    30    1
    16    30    31    1
    17     6     7   ar
    18     7     8   ar
    19     8     9   ar
    20     9    10   ar
    21    13    14   ar
    22    14    15   ar
    23    15    16   ar
    24    16    17   ar
    25    17    18   ar
    26    18    19   ar
    27    19    20   ar
    28    20    21   ar
    29    21    22   ar
    30    22    23   ar
    31    23    12   ar
    32    10     1   ar
    33    23    15   ar
    34     9     4   ar
    35    22    17   ar
    36    30    26    1
@<TRIPOS>MOLECULE
*****
 31 36 0 0 0
SMALL
GASTEIGER

@<TRIPOS>ATOM
      1 C         141.8146  139.4193  162.3103 C.ar    1  UNL1        0.0884
      2 C         143.1129  138.7036  162.0815 C.ar    1  UNL1        0.0197
      3 C         143.3799  138.0368  160.7647 C.ar    1  UNL1        0.0030
      4 C         142.3485  138.0856  159.6766 C.ar    1  UNL1        0.0174
      5 C         142.6153  137.4189  158.3597 C.ar    1  UNL1       -0.0027
      6 C         141.5840  137.4677  157.2717 C.ar    1  UNL1       -0.0207
      7 C         140.2857  138.1833  157.5005 C.ar    1  UNL1       -0.0027
      8 C         140.0188  138.8501  158.8173 C.ar    1  UNL1        0.0188
      9 C         141.0502  138.8012  159.9053 C.ar    1  UNL1        0.0812
     10 N         140.7832  139.4681  161.2223 N.ar    1  UNL1       -0.2448
     11 C         140.2166  138.1077  164.8353 C.3     1  UNL1        0.0510
     12 C         140.8131  139.4831  164.7878 C.ar    1  UNL1        0.0511
     13 C         141.5476  140.0861  163.6272 C.ar    1  UNL1        0.0619
     14 S         141.9683  141.4728  164.0146 S.2     1  UNL1       -0.0474
     15 C         141.4938  141.7269  165.4147 C.ar    1  UNL1        0.1792
     16 N         141.4605  142.7410  166.5195 N.ar    1  UNL1       -0.2206
     17 C         140.7260  142.1382  167.6801 C.ar    1  UNL1        0.0995
     18 C         140.3858  142.6728  169.0397 C.ar    1  UNL1        0.0207
     19 C         139.6250  141.8207  170.0118 C.ar    1  UNL1        0.0016
     20 C         139.2044  140.4340  169.6244 C.ar    1  UNL1        0.0016
     21 C         139.5445  139.8994  168.2648 C.ar    1  UNL1        0.0191
     22 C         140.3053  140.7515  167.2927 C.ar    1  UNL1        0.0831
     23 N         140.7798  140.4973  165.8926 N.ar    1  UNL1       -0.2883
     24 C         141.8509  136.8009  155.9548 C.3     1  UNL1        0.0437
     25 C         142.9182  135.7522  155.8478 C.3     1  UNL1        0.0768
     26 N         142.5448  134.2994  155.8486 N.3     1  UNL1       -0.2737
     27 C         141.4891  133.6600  154.9964 C.3     1  UNL1        0.0721
     28 C         141.4535  132.1963  155.3229 C.3     1  UNL1        0.0187
     29 C         142.4874  131.9313  156.3768 C.3     1  UNL1        0.0174
     30 C         143.1618  133.2310  156.7018 C.3     1  UNL1        0.0576
     31 C         144.2604  133.4279  157.7039 C.3     1  UNL1        0.0173
@<TRIPOS>BOND
     1    11    12    1
     2    12    13   ar
     3    13     1    1
     4     1     2   ar
     5     2     3   ar
     6     3     4   ar
     7     4     5   ar
     8     5     6   ar
     9     6    24    1
    10    24    25    1
    11    25    26    1
    12    26    27    1
    13    27    28    1
    14    28    29    1
    15    29    30    1
    16    30    31    1
    17     6     7   ar
    18     7     8   ar
    19     8     9   ar
    20     9    10   ar
    21    13    14   ar
    22    14    15   ar
    23    15    16   ar
    24    16    17   ar
    25    17    18   ar
    26    18    19   ar
    27    19    20   ar
    28    20    21   ar
    29    21    22   ar
    30    22    23   ar
    31    23    12   ar
    32    10     1   ar
    33    23    15   ar
    34     9     4   ar
    35    22    17   ar
    36    30    26    1
@<TRIPOS>MOLECULE
*****
 31 36 0 0 0
SMALL
GASTEIGER

@<TRIPOS>ATOM
      1 C         141.0911  144.1337  162.5700 C.ar    1  UNL1        0.0884
      2 C         140.2396  145.3685  162.5614 C.ar    1  UNL1        0.0197
      3 C         139.9149  146.0465  161.2634 C.ar    1  UNL1        0.0030
      4 C         140.4416  145.4897  159.9739 C.ar    1  UNL1        0.0174
      5 C         140.1169  146.1676  158.6760 C.ar    1  UNL1       -0.0027
      6 C         140.6437  145.6108  157.3866 C.ar    1  UNL1       -0.0207
      7 C         141.4952  144.3759  157.3953 C.ar    1  UNL1       -0.0027
      8 C         141.8199  143.6980  158.6933 C.ar    1  UNL1        0.0188
      9 C         141.2932  144.2548  159.9826 C.ar    1  UNL1        0.0812
     10 N         141.6179  143.5768  161.2807 N.ar    1  UNL1       -0.2448
     11 C         138.9810  142.5392  164.4817 C.3     1  UNL1        0.0510
     12 C         140.4459  142.7227  164.7467 C.ar    1  UNL1        0.0511
     13 C         141.4159  143.4556  163.8680 C.ar    1  UNL1        0.0619
     14 S         142.7676  143.3914  164.5152 S.2     1  UNL1       -0.0474
     15 C         142.6330  142.6189  165.7939 C.ar    1  UNL1        0.1792
     16 N         143.3852  142.1017  166.9842 N.ar    1  UNL1       -0.2206
     17 C         142.4153  141.3688  167.8629 C.ar    1  UNL1        0.0995
     18 C         142.5882  140.6513  169.1687 C.ar    1  UNL1        0.0207
     19 C         141.4096  139.9980  169.8274 C.ar    1  UNL1        0.0016
     20 C         140.0579  140.0622  169.1802 C.ar    1  UNL1        0.0016
     21 C         139.8849  140.7797  167.8743 C.ar    1  UNL1        0.0191
     22 C         141.0636  141.4330  167.2157 C.ar    1  UNL1        0.0831
     23 N         141.1982  142.2056  165.9370 N.ar    1  UNL1       -0.2883
     24 C         140.3189  146.2888  156.0886 C.3     1  UNL1        0.0437
     25 C         139.0366  147.0531  155.9419 C.3     1  UNL1        0.0768
     26 N         139.0635  148.4839  155.4921 N.3     1  UNL1       -0.2737
     27 C         139.5502  148.9813  154.1634 C.3     1  UNL1        0.0721
     28 C         139.3959  150.4732  154.1422 C.3     1  UNL1        0.0187
     29 C         138.8137  150.8977  155.4578 C.3     1  UNL1        0.0174
     30 C         138.6083  149.6683  156.2921 C.3     1  UNL1        0.0576
     31 C         138.0464  149.6298  157.6823 C.3     1  UNL1        0.0173
@<TRIPOS>BOND
     1    11    12    1
     2    12    13   ar
     3    13     1    1
     4     1     2   ar
     5     2     3   ar
     6     3     4   ar
     7     4     5   ar
     8     5     6   ar
     9     6    24    1
    10    24    25    1
    11    25    26    1
    12    26    27    1
    13    27    28    1
    14    28    29    1
    15    29    30    1
    16    30    31    1
    17     6     7   ar
    18     7     8   ar
    19     8     9   ar
    20     9    10   ar
    21    13    14   ar
    22    14    15   ar
    23    15    16   ar
    24    16    17   ar
    25    17    18   ar
    26    18    19   ar
    27    19    20   ar
    28    20    21   ar
    29    21    22   ar
    30    22    23   ar
    31    23    12   ar
    32    10     1   ar
    33    23    15   ar
    34     9     4   ar
    35    22    17   ar
    36    30    26    1
@<TRIPOS>MOLECULE
*****
 31 36 0 0 0
SMALL
GASTEIGER

@<TRIPOS>ATOM
      1 C         141.8084  138.9996  159.5046 C.ar    1  UNL1        0.0884
      2 C         140.3244  138.9755  159.2869 C.ar    1  UNL1        0.0197
      3 C         139.4052  138.6360  160.4225 C.ar    1  UNL1        0.0030
      4 C         139.9698  138.3206  161.7760 C.ar    1  UNL1        0.0174
      5 C         139.0507  137.9812  162.9117 C.ar    1  UNL1       -0.0027
      6 C         139.6153  137.6658  164.2650 C.ar    1  UNL1       -0.0207
      7 C         141.0993  137.6899  164.4828 C.ar    1  UNL1       -0.0027
      8 C         142.0184  138.0294  163.3471 C.ar    1  UNL1        0.0188
      9 C         141.4538  138.3448  161.9938 C.ar    1  UNL1        0.0812
     10 N         142.3730  138.6843  160.8580 N.ar    1  UNL1       -0.2448
     11 C         143.9973  141.4196  159.4664 C.3     1  UNL1        0.0510
     12 C         143.7338  140.4515  158.3515 C.ar    1  UNL1        0.0511
     13 C         142.7276  139.3391  158.3690 C.ar    1  UNL1        0.0619
     14 S         142.8022  138.6258  157.0515 S.2     1  UNL1       -0.0474
     15 C         143.8544  139.2974  156.2198 C.ar    1  UNL1        0.1792
     16 N         144.5508  139.2717  154.8915 N.ar    1  UNL1       -0.2206
     17 C         145.5569  140.3840  154.8739 C.ar    1  UNL1        0.0995
     18 C         146.5313  140.8396  153.8285 C.ar    1  UNL1        0.0207
     19 C         147.4312  142.0084  154.1005 C.ar    1  UNL1        0.0016
     20 C         147.3566  142.7217  155.4180 C.ar    1  UNL1        0.0016
     21 C         146.3822  142.2661  156.4634 C.ar    1  UNL1        0.0191
     22 C         145.4824  141.0973  156.1914 C.ar    1  UNL1        0.0831
     23 N         144.4302  140.4257  157.0231 N.ar    1  UNL1       -0.2883
     24 C         138.6961  137.3263  165.4007 C.3     1  UNL1        0.0437
     25 C         138.1330  138.4178  166.2619 C.3     1  UNL1        0.0768
     26 N         138.9404  139.6533  166.5302 N.3     1  UNL1       -0.2737
     27 C         139.8746  139.8623  167.6849 C.3     1  UNL1        0.0721
     28 C         140.4668  141.2348  167.5593 C.3     1  UNL1        0.0187
     29 C         139.8985  141.8738  166.3270 C.3     1  UNL1        0.0174
     30 C         138.9551  140.8964  165.6910 C.3     1  UNL1        0.0576
     31 C         138.1651  141.1223  164.4360 C.3     1  UNL1        0.0173
@<TRIPOS>BOND
     1    11    12    1
     2    12    13   ar
     3    13     1    1
     4     1     2   ar
     5     2     3   ar
     6     3     4   ar
     7     4     5   ar
     8     5     6   ar
     9     6    24    1
    10    24    25    1
    11    25    26    1
    12    26    27    1
    13    27    28    1
    14    28    29    1
    15    29    30    1
    16    30    31    1
    17     6     7   ar
    18     7     8   ar
    19     8     9   ar
    20     9    10   ar
    21    13    14   ar
    22    14    15   ar
    23    15    16   ar
    24    16    17   ar
    25    17    18   ar
    26    18    19   ar
    27    19    20   ar
    28    20    21   ar
    29    21    22   ar
    30    22    23   ar
    31    23    12   ar
    32    10     1   ar
    33    23    15   ar
    34     9     4   ar
    35    22    17   ar
    36    30    26    1
