@<TRIPOS>MOLECULE
*****
 32 35 0 0 0
SMALL
GASTEIGER

@<TRIPOS>ATOM
      1 C         140.1196  141.2151  165.7040 C.ar    1  UNL1        0.0906
      2 C         140.6045  141.9505  166.9180 C.ar    1  UNL1        0.1496
      3 O         140.1742  143.3822  166.7952 O.2     1  UNL1       -0.4534
      4 C         139.4233  143.5316  165.5053 C.ar    1  UNL1        0.1454
      5 C         138.7660  144.7142  164.8578 C.ar    1  UNL1        0.0406
      6 C         138.0749  144.5573  163.5358 C.ar    1  UNL1        0.0395
      7 C         138.0411  143.2179  162.8613 C.ar    1  UNL1        0.1311
      8 O         137.3500  143.0612  161.5392 O.3     1  UNL1       -0.5058
      9 C         138.6985  142.0354  163.5088 C.ar    1  UNL1        0.0308
     10 C         139.3896  142.1922  164.8309 C.ar    1  UNL1        0.0421
     11 H         136.9393  143.7999  161.1347 H       1  UNL1        0.2922
     12 C         141.3831  141.3583  168.0552 C.ar    1  UNL1        0.0349
     13 C         140.9050  140.0996  168.7162 C.ar    1  UNL1        0.0061
     14 C         141.6836  139.5073  169.8534 C.ar    1  UNL1        0.0367
     15 C         142.9402  140.1738  170.3295 C.ar    1  UNL1        0.1337
     16 O         143.7187  139.5816  171.4666 O.3     1  UNL1       -0.5055
     17 C         143.4182  141.4325  169.6684 C.ar    1  UNL1        0.0367
     18 C         142.6397  142.0248  168.5313 C.ar    1  UNL1        0.0061
     19 H         143.4201  138.7953  171.8796 H       1  UNL1        0.2922
     20 C         141.7878  137.8457  164.4332 C.3     1  UNL1        0.1109
     21 N         141.5794  139.3025  164.7233 N.am    1  UNL1       -0.2991
     22 C         140.3281  139.7582  165.4139 C.2     1  UNL1        0.2490
     23 O         139.2855  138.7570  165.8143 O.2     1  UNL1       -0.2700
     24 H         142.2637  139.9596  164.4605 H       1  UNL1        0.1498
     25 C         138.6647  140.6960  162.8344 C.3     1  UNL1        0.1023
     26 N         139.8366  140.2376  162.0180 N.3     1  UNL1       -0.2687
     27 C         139.8711  138.8401  161.4741 C.3     1  UNL1        0.0752
     28 C         141.0430  138.3817  160.6578 C.3     1  UNL1        0.0526
     29 C         142.1804  139.3208  160.3851 C.3     1  UNL1        0.1638
     30 F         143.3524  138.8624  159.5687 F       1  UNL1       -0.2372
     31 C         142.1460  140.7183  160.9289 C.3     1  UNL1        0.0526
     32 C         140.9740  141.1768  161.7454 C.3     1  UNL1        0.0752
@<TRIPOS>BOND
     1    20    21    1
     2    21    22   am
     3    22    23    2
     4    22     1    1
     5     1     2   ar
     6     2    12    1
     7    12    13   ar
     8    13    14   ar
     9    14    15   ar
    10    15    16    1
    11    15    17   ar
    12    17    18   ar
    13     2     3   ar
    14     3     4   ar
    15     4     5   ar
    16     5     6   ar
    17     6     7   ar
    18     7     8    1
    19     7     9   ar
    20     9    25    1
    21    25    26    1
    22    26    27    1
    23    27    28    1
    24    28    29    1
    25    29    30    1
    26    29    31    1
    27    31    32    1
    28     9    10   ar
    29    10     1   ar
    30    18    12   ar
    31    10     4   ar
    32    32    26    1
    33    21    24    1
    34    16    19    1
    35     8    11    1
@<TRIPOS>MOLECULE
*****
 32 35 0 0 0
SMALL
GASTEIGER

@<TRIPOS>ATOM
      1 C         141.4818  142.7197  165.1687 C.ar    1  UNL1        0.0906
      2 C         140.4224  142.9177  166.2120 C.ar    1  UNL1        0.1496
      3 O         139.4463  143.9323  165.6946 O.2     1  UNL1       -0.4534
      4 C         139.9024  144.3613  164.3315 C.ar    1  UNL1        0.1454
      5 C         139.3346  145.3375  163.3443 C.ar    1  UNL1        0.0406
      6 C         140.0250  145.5643  162.0321 C.ar    1  UNL1        0.0395
      7 C         141.2830  144.8149  161.7071 C.ar    1  UNL1        0.1311
      8 O         141.9734  145.0417  160.3948 O.3     1  UNL1       -0.5058
      9 C         141.8507  143.8386  162.6943 C.ar    1  UNL1        0.0308
     10 C         141.1604  143.6119  164.0065 C.ar    1  UNL1        0.0421
     11 H         141.6187  145.6515  159.7781 H       1  UNL1        0.2922
     12 C         140.3516  142.2231  167.5397 C.ar    1  UNL1        0.0349
     13 C         140.0015  140.7661  167.6061 C.ar    1  UNL1        0.0061
     14 C         139.9308  140.0715  168.9337 C.ar    1  UNL1        0.0367
     15 C         140.2101  140.8339  170.1949 C.ar    1  UNL1        0.1337
     16 O         140.1393  140.1394  171.5225 O.3     1  UNL1       -0.5055
     17 C         140.5602  142.2910  170.1284 C.ar    1  UNL1        0.0367
     18 C         140.6310  142.9856  168.8008 C.ar    1  UNL1        0.0061
     19 H         139.9206  139.2292  171.5640 H       1  UNL1        0.2922
     20 C         143.6734  139.4141  165.0236 C.3     1  UNL1        0.1109
     21 N         142.4987  140.3415  164.9225 N.am    1  UNL1       -0.2991
     22 C         142.6564  141.7923  165.2699 C.2     1  UNL1        0.2490
     23 O         143.9887  142.3155  165.7183 O.2     1  UNL1       -0.2700
     24 H         141.6243  139.9981  164.6281 H       1  UNL1        0.1498
     25 C         143.1088  143.0892  162.3693 C.3     1  UNL1        0.1023
     26 N         143.0333  141.6724  161.8826 N.3     1  UNL1       -0.2687
     27 C         144.2837  140.8522  161.7648 C.3     1  UNL1        0.0752
     28 C         144.2082  139.4354  161.2780 C.3     1  UNL1        0.0526
     29 C         142.8823  138.8388  160.9090 C.3     1  UNL1        0.1638
     30 F         142.8069  137.4219  160.4222 F       1  UNL1       -0.2372
     31 C         141.6320  139.6589  161.0267 C.3     1  UNL1        0.0526
     32 C         141.7075  141.0758  161.5135 C.3     1  UNL1        0.0752
@<TRIPOS>BOND
     1    20    21    1
     2    21    22   am
     3    22    23    2
     4    22     1    1
     5     1     2   ar
     6     2    12    1
     7    12    13   ar
     8    13    14   ar
     9    14    15   ar
    10    15    16    1
    11    15    17   ar
    12    17    18   ar
    13     2     3   ar
    14     3     4   ar
    15     4     5   ar
    16     5     6   ar
    17     6     7   ar
    18     7     8    1
    19     7     9   ar
    20     9    25    1
    21    25    26    1
    22    26    27    1
    23    27    28    1
    24    28    29    1
    25    29    30    1
    26    29    31    1
    27    31    32    1
    28     9    10   ar
    29    10     1   ar
    30    18    12   ar
    31    10     4   ar
    32    32    26    1
    33    21    24    1
    34    16    19    1
    35     8    11    1
@<TRIPOS>MOLECULE
*****
 32 35 0 0 0
SMALL
GASTEIGER

@<TRIPOS>ATOM
      1 C         141.8368  142.7891  165.4538 C.ar    1  UNL1        0.0906
      2 C         141.1774  142.3636  166.7322 C.ar    1  UNL1        0.1496
      3 O         139.7278  142.7411  166.6539 O.2     1  UNL1       -0.4534
      4 C         139.4913  143.3998  165.3271 C.ar    1  UNL1        0.1454
      5 C         138.2575  143.9765  164.6986 C.ar    1  UNL1        0.0406
      6 C         138.3271  144.5828  163.3284 C.ar    1  UNL1        0.0395
      7 C         139.6306  144.6124  162.5867 C.ar    1  UNL1        0.1311
      8 O         139.7002  145.2188  161.2165 O.3     1  UNL1       -0.5058
      9 C         140.8644  144.0358  163.2153 C.ar    1  UNL1        0.0308
     10 C         140.7948  143.4295  164.5855 C.ar    1  UNL1        0.0421
     11 H         138.9295  145.5790  160.8238 H       1  UNL1        0.2922
     12 C         141.8496  141.6806  167.8862 C.ar    1  UNL1        0.0349
     13 C         141.5524  140.2404  168.1817 C.ar    1  UNL1        0.0061
     14 C         142.2246  139.5574  169.3357 C.ar    1  UNL1        0.0367
     15 C         143.1939  140.3146  170.1942 C.ar    1  UNL1        0.1337
     16 O         143.8661  139.6316  171.3482 O.3     1  UNL1       -0.5055
     17 C         143.4911  141.7549  169.8986 C.ar    1  UNL1        0.0367
     18 C         142.8189  142.4378  168.7446 C.ar    1  UNL1        0.0061
     19 H         143.6804  138.7320  171.5328 H       1  UNL1        0.2922
     20 C         145.1682  141.2210  163.9727 C.3     1  UNL1        0.1109
     21 N         143.7208  141.4038  164.3215 N.am    1  UNL1       -0.2991
     22 C         143.2842  142.6062  165.1050 C.2     1  UNL1        0.2490
     23 O         144.2951  143.6256  165.5396 O.2     1  UNL1       -0.2700
     24 H         143.0574  140.7347  164.0362 H       1  UNL1        0.1498
     25 C         142.1679  144.0654  162.4736 C.3     1  UNL1        0.1023
     26 N         142.5630  142.9082  161.6049 N.3     1  UNL1       -0.2687
     27 C         143.8802  142.9244  160.8873 C.3     1  UNL1        0.0752
     28 C         144.2753  141.7672  160.0186 C.3     1  UNL1        0.0526
     29 C         143.3533  140.5937  159.8674 C.3     1  UNL1        0.1638
     30 F         143.7485  139.4364  158.9987 F       1  UNL1       -0.2372
     31 C         142.0362  140.5774  160.5850 C.3     1  UNL1        0.0526
     32 C         141.6410  141.7347  161.4537 C.3     1  UNL1        0.0752
@<TRIPOS>BOND
     1    20    21    1
     2    21    22   am
     3    22    23    2
     4    22     1    1
     5     1     2   ar
     6     2    12    1
     7    12    13   ar
     8    13    14   ar
     9    14    15   ar
    10    15    16    1
    11    15    17   ar
    12    17    18   ar
    13     2     3   ar
    14     3     4   ar
    15     4     5   ar
    16     5     6   ar
    17     6     7   ar
    18     7     8    1
    19     7     9   ar
    20     9    25    1
    21    25    26    1
    22    26    27    1
    23    27    28    1
    24    28    29    1
    25    29    30    1
    26    29    31    1
    27    31    32    1
    28     9    10   ar
    29    10     1   ar
    30    18    12   ar
    31    10     4   ar
    32    32    26    1
    33    21    24    1
    34    16    19    1
    35     8    11    1
@<TRIPOS>MOLECULE
*****
 32 35 0 0 0
SMALL
GASTEIGER

@<TRIPOS>ATOM
      1 C         140.2022  141.6371  165.6189 C.ar    1  UNL1        0.0906
      2 C         140.6928  141.0364  166.9029 C.ar    1  UNL1        0.1496
      3 O         140.4024  139.5652  166.8670 O.2     1  UNL1       -0.4534
      4 C         139.7324  139.2566  165.5609 C.ar    1  UNL1        0.1454
      5 C         139.2191  137.9751  164.9743 C.ar    1  UNL1        0.0406
      6 C         138.5819  137.9741  163.6164 C.ar    1  UNL1        0.0395
      7 C         138.4582  139.2546  162.8450 C.ar    1  UNL1        0.1311
      8 O         137.8210  139.2536  161.4870 O.3     1  UNL1       -0.5058
      9 C         138.9715  140.5361  163.4316 C.ar    1  UNL1        0.0308
     10 C         139.6087  140.5371  164.7895 C.ar    1  UNL1        0.0421
     11 H         137.5003  138.4530  161.1206 H       1  UNL1        0.2922
     12 C         141.3570  141.7768  168.0256 C.ar    1  UNL1        0.0349
     13 C         140.5725  142.7588  168.8442 C.ar    1  UNL1        0.0061
     14 C         141.2367  143.4993  169.9669 C.ar    1  UNL1        0.0367
     15 C         142.6856  143.2578  170.2710 C.ar    1  UNL1        0.1337
     16 O         143.3498  143.9983  171.3937 O.3     1  UNL1       -0.5055
     17 C         143.4701  142.2758  169.4524 C.ar    1  UNL1        0.0367
     18 C         142.8059  141.5354  168.3297 C.ar    1  UNL1        0.0061
     19 H         142.8597  144.6117  171.9050 H       1  UNL1        0.2922
     20 C         141.4989  145.0063  163.9705 C.3     1  UNL1        0.1109
     21 N         141.4114  143.5596  164.3572 N.am    1  UNL1       -0.2991
     22 C         140.2898  143.0837  165.2322 C.2     1  UNL1        0.2490
     23 O         139.2558  144.0545  165.7205 O.2     1  UNL1       -0.2700
     24 H         142.0900  142.9225  164.0367 H       1  UNL1        0.1498
     25 C         138.8478  141.8166  162.6603 C.3     1  UNL1        0.1023
     26 N         139.9705  142.2705  161.7751 N.3     1  UNL1       -0.2687
     27 C         139.8609  143.5680  161.0304 C.3     1  UNL1        0.0752
     28 C         140.9835  144.0219  160.1452 C.3     1  UNL1        0.0526
     29 C         142.2159  143.1783  160.0047 C.3     1  UNL1        0.1638
     30 F         143.3386  143.6322  159.1195 F       1  UNL1       -0.2372
     31 C         142.3255  141.8808  160.7494 C.3     1  UNL1        0.0526
     32 C         141.2028  141.4269  161.6346 C.3     1  UNL1        0.0752
@<TRIPOS>BOND
     1    20    21    1
     2    21    22   am
     3    22    23    2
     4    22     1    1
     5     1     2   ar
     6     2    12    1
     7    12    13   ar
     8    13    14   ar
     9    14    15   ar
    10    15    16    1
    11    15    17   ar
    12    17    18   ar
    13     2     3   ar
    14     3     4   ar
    15     4     5   ar
    16     5     6   ar
    17     6     7   ar
    18     7     8    1
    19     7     9   ar
    20     9    25    1
    21    25    26    1
    22    26    27    1
    23    27    28    1
    24    28    29    1
    25    29    30    1
    26    29    31    1
    27    31    32    1
    28     9    10   ar
    29    10     1   ar
    30    18    12   ar
    31    10     4   ar
    32    32    26    1
    33    21    24    1
    34    16    19    1
    35     8    11    1
@<TRIPOS>MOLECULE
*****
 32 35 0 0 0
SMALL
GASTEIGER

@<TRIPOS>ATOM
      1 C         140.8536  141.5393  165.3935 C.ar    1  UNL1        0.0906
      2 C         140.8193  142.0366  166.8083 C.ar    1  UNL1        0.1496
      3 O         139.8954  143.2170  166.8624 O.2     1  UNL1       -0.4534
      4 C         139.3587  143.4493  165.4811 C.ar    1  UNL1        0.1454
      5 C         138.4073  144.4711  164.9327 C.ar    1  UNL1        0.0406
      6 C         138.0481  144.4559  163.4764 C.ar    1  UNL1        0.0395
      7 C         138.6403  143.4190  162.5686 C.ar    1  UNL1        0.1311
      8 O         138.2810  143.4039  161.1123 O.3     1  UNL1       -0.5058
      9 C         139.5917  142.3973  163.1170 C.ar    1  UNL1        0.0308
     10 C         139.9509  142.4124  164.5733 C.ar    1  UNL1        0.0421
     11 H         137.6866  144.0421  160.7697 H       1  UNL1        0.2922
     12 C         141.5760  141.4554  167.9657 C.ar    1  UNL1        0.0349
     13 C         141.2192  140.0954  168.4881 C.ar    1  UNL1        0.0061
     14 C         141.9760  139.5142  169.6455 C.ar    1  UNL1        0.0367
     15 C         143.0895  140.2931  170.2806 C.ar    1  UNL1        0.1337
     16 O         143.8462  139.7119  171.4380 O.3     1  UNL1       -0.5055
     17 C         143.4463  141.6531  169.7582 C.ar    1  UNL1        0.0367
     18 C         142.6896  142.2343  168.6007 C.ar    1  UNL1        0.0061
     19 H         143.6233  138.8623  171.7643 H       1  UNL1        0.2922
     20 C         143.7780  139.4363  163.7276 C.3     1  UNL1        0.1109
     21 N         142.9810  140.6020  164.2333 N.am    1  UNL1       -0.2991
     22 C         141.6507  140.3736  164.8878 C.2     1  UNL1        0.2490
     23 O         141.1175  138.9795  165.0364 O.2     1  UNL1       -0.2700
     24 H         143.3309  141.5170  164.1358 H       1  UNL1        0.1498
     25 C         140.1839  141.3604  162.2092 C.3     1  UNL1        0.1023
     26 N         141.4589  141.6479  161.4733 N.3     1  UNL1       -0.2687
     27 C         142.1323  142.9790  161.6312 C.3     1  UNL1        0.0752
     28 C         143.4073  143.2665  160.8953 C.3     1  UNL1        0.0526
     29 C         144.0090  142.2231  160.0014 C.3     1  UNL1        0.1638
     30 F         145.2840  142.5107  159.2654 F       1  UNL1       -0.2372
     31 C         143.3357  140.8920  159.8434 C.3     1  UNL1        0.0526
     32 C         142.0606  140.6044  160.5794 C.3     1  UNL1        0.0752
@<TRIPOS>BOND
     1    20    21    1
     2    21    22   am
     3    22    23    2
     4    22     1    1
     5     1     2   ar
     6     2    12    1
     7    12    13   ar
     8    13    14   ar
     9    14    15   ar
    10    15    16    1
    11    15    17   ar
    12    17    18   ar
    13     2     3   ar
    14     3     4   ar
    15     4     5   ar
    16     5     6   ar
    17     6     7   ar
    18     7     8    1
    19     7     9   ar
    20     9    25    1
    21    25    26    1
    22    26    27    1
    23    27    28    1
    24    28    29    1
    25    29    30    1
    26    29    31    1
    27    31    32    1
    28     9    10   ar
    29    10     1   ar
    30    18    12   ar
    31    10     4   ar
    32    32    26    1
    33    21    24    1
    34    16    19    1
    35     8    11    1
@<TRIPOS>MOLECULE
*****
 32 35 0 0 0
SMALL
GASTEIGER

@<TRIPOS>ATOM
      1 C         141.0348  142.3509  165.3744 C.ar    1  UNL1        0.0906
      2 C         141.8166  142.1628  166.6406 C.ar    1  UNL1        0.1496
      3 O         143.1574  142.8101  166.4579 O.2     1  UNL1       -0.4534
      4 C         143.2043  143.3981  165.0787 C.ar    1  UNL1        0.1454
      5 C         144.2720  144.1553  164.3462 C.ar    1  UNL1        0.0406
      6 C         144.0278  144.6286  162.9440 C.ar    1  UNL1        0.0395
      7 C         142.7159  144.3448  162.2743 C.ar    1  UNL1        0.1311
      8 O         142.4718  144.8183  160.8720 O.3     1  UNL1       -0.5058
      9 C         141.6482  143.5876  163.0069 C.ar    1  UNL1        0.0308
     10 C         141.8924  143.1143  164.4091 C.ar    1  UNL1        0.0421
     11 H         143.1387  145.2912  160.4144 H       1  UNL1        0.2922
     12 C         141.3412  141.4523  167.8731 C.ar    1  UNL1        0.0349
     13 C         140.1716  141.9888  168.6439 C.ar    1  UNL1        0.0061
     14 C         139.6961  141.2783  169.8765 C.ar    1  UNL1        0.0367
     15 C         140.3902  140.0314  170.3382 C.ar    1  UNL1        0.1337
     16 O         139.9148  139.3209  171.5707 O.3     1  UNL1       -0.5055
     17 C         141.5598  139.4949  169.5674 C.ar    1  UNL1        0.0367
     18 C         142.0353  140.2054  168.3349 C.ar    1  UNL1        0.0061
     19 H         139.1841  139.6560  172.0522 H       1  UNL1        0.2922
     20 C         138.0036  139.9238  164.5550 C.3     1  UNL1        0.1109
     21 N         139.3982  140.4132  164.8110 N.am    1  UNL1       -0.2991
     22 C         139.6402  141.8614  165.1183 C.2     1  UNL1        0.2490
     23 O         138.4877  142.8199  165.1695 O.2     1  UNL1       -0.2700
     24 H         140.1547  139.7840  164.7774 H       1  UNL1        0.1498
     25 C         140.3364  143.3038  162.3372 C.3     1  UNL1        0.1023
     26 N         140.0479  141.9320  161.8036 N.3     1  UNL1       -0.2687
     27 C         138.6592  141.5753  161.3628 C.3     1  UNL1        0.0752
     28 C         138.3708  140.2034  160.8292 C.3     1  UNL1        0.0526
     29 C         139.4711  139.1881  160.7365 C.3     1  UNL1        0.1638
     30 F         139.1826  137.8162  160.2029 F       1  UNL1       -0.2372
     31 C         140.8597  139.5447  161.1774 C.3     1  UNL1        0.0526
     32 C         141.1482  140.9167  161.7109 C.3     1  UNL1        0.0752
@<TRIPOS>BOND
     1    20    21    1
     2    21    22   am
     3    22    23    2
     4    22     1    1
     5     1     2   ar
     6     2    12    1
     7    12    13   ar
     8    13    14   ar
     9    14    15   ar
    10    15    16    1
    11    15    17   ar
    12    17    18   ar
    13     2     3   ar
    14     3     4   ar
    15     4     5   ar
    16     5     6   ar
    17     6     7   ar
    18     7     8    1
    19     7     9   ar
    20     9    25    1
    21    25    26    1
    22    26    27    1
    23    27    28    1
    24    28    29    1
    25    29    30    1
    26    29    31    1
    27    31    32    1
    28     9    10   ar
    29    10     1   ar
    30    18    12   ar
    31    10     4   ar
    32    32    26    1
    33    21    24    1
    34    16    19    1
    35     8    11    1
@<TRIPOS>MOLECULE
*****
 32 35 0 0 0
SMALL
GASTEIGER

@<TRIPOS>ATOM
      1 C         142.1539  140.5235  165.1179 C.ar    1  UNL1        0.0906
      2 C         142.2156  141.2360  166.4364 C.ar    1  UNL1        0.1496
      3 O         142.9900  142.5057  166.2414 O.2     1  UNL1       -0.4534
      4 C         143.4070  142.5780  164.8023 C.ar    1  UNL1        0.1454
      5 C         144.1905  143.6010  164.0346 C.ar    1  UNL1        0.0406
      6 C         144.4572  143.3990  162.5724 C.ar    1  UNL1        0.0395
      7 C         143.9404  142.1739  161.8780 C.ar    1  UNL1        0.1311
      8 O         144.2071  141.9719  160.4157 O.3     1  UNL1       -0.5058
      9 C         143.1569  141.1509  162.6457 C.ar    1  UNL1        0.0308
     10 C         142.8902  141.3529  164.1079 C.ar    1  UNL1        0.0421
     11 H         144.6965  142.6110  159.9361 H       1  UNL1        0.2922
     12 C         141.6092  140.7619  167.7239 C.ar    1  UNL1        0.0349
     13 C         142.4244  139.9425  168.6799 C.ar    1  UNL1        0.0061
     14 C         141.8181  139.4685  169.9674 C.ar    1  UNL1        0.0367
     15 C         140.3966  139.8139  170.2989 C.ar    1  UNL1        0.1337
     16 O         139.7902  139.3399  171.5864 O.3     1  UNL1       -0.5055
     17 C         139.5814  140.6333  169.3429 C.ar    1  UNL1        0.0367
     18 C         140.1877  141.1074  168.0554 C.ar    1  UNL1        0.0061
     19 H         140.2995  138.8280  172.1836 H       1  UNL1        0.2922
     20 C         139.3280  137.8637  164.2871 C.3     1  UNL1        0.1109
     21 N         140.0069  139.1753  164.5497 N.am    1  UNL1       -0.2991
     22 C         141.4750  139.2120  164.8553 C.2     1  UNL1        0.2490
     23 O         142.2641  137.9371  164.8983 O.2     1  UNL1       -0.2700
     24 H         139.4889  140.0120  164.5214 H       1  UNL1        0.1498
     25 C         142.6401  139.9258  161.9513 C.3     1  UNL1        0.1023
     26 N         141.2090  139.8634  161.5066 N.3     1  UNL1       -0.2687
     27 C         140.6399  138.5754  160.9893 C.3     1  UNL1        0.0752
     28 C         139.2087  138.5130  160.5446 C.3     1  UNL1        0.0526
     29 C         138.3466  139.7383  160.6170 C.3     1  UNL1        0.1638
     30 F         136.9154  139.6758  160.1722 F       1  UNL1       -0.2372
     31 C         138.9157  141.0262  161.1342 C.3     1  UNL1        0.0526
     32 C         140.3469  141.0887  161.5790 C.3     1  UNL1        0.0752
@<TRIPOS>BOND
     1    20    21    1
     2    21    22   am
     3    22    23    2
     4    22     1    1
     5     1     2   ar
     6     2    12    1
     7    12    13   ar
     8    13    14   ar
     9    14    15   ar
    10    15    16    1
    11    15    17   ar
    12    17    18   ar
    13     2     3   ar
    14     3     4   ar
    15     4     5   ar
    16     5     6   ar
    17     6     7   ar
    18     7     8    1
    19     7     9   ar
    20     9    25    1
    21    25    26    1
    22    26    27    1
    23    27    28    1
    24    28    29    1
    25    29    30    1
    26    29    31    1
    27    31    32    1
    28     9    10   ar
    29    10     1   ar
    30    18    12   ar
    31    10     4   ar
    32    32    26    1
    33    21    24    1
    34    16    19    1
    35     8    11    1
@<TRIPOS>MOLECULE
*****
 32 35 0 0 0
SMALL
GASTEIGER

@<TRIPOS>ATOM
      1 C         142.7872  140.7839  165.4141 C.ar    1  UNL1        0.0906
      2 C         142.3249  141.5568  166.6137 C.ar    1  UNL1        0.1496
      3 O         142.6265  143.0067  166.3753 O.2     1  UNL1       -0.4534
      4 C         143.2752  143.1299  165.0285 C.ar    1  UNL1        0.1454
      5 C         143.7883  144.3156  164.2663 C.ar    1  UNL1        0.0406
      6 C         144.4007  144.1275  162.9101 C.ar    1  UNL1        0.0395
      7 C         144.5001  142.7538  162.3160 C.ar    1  UNL1        0.1311
      8 O         145.1126  142.5657  160.9596 O.3     1  UNL1       -0.5058
      9 C         143.9870  141.5681  163.0781 C.ar    1  UNL1        0.0308
     10 C         143.3746  141.7562  164.4344 C.ar    1  UNL1        0.0421
     11 H         145.4331  143.3064  160.4835 H       1  UNL1        0.2922
     12 C         141.6751  140.9808  167.8368 C.ar    1  UNL1        0.0349
     13 C         140.2243  141.2457  168.1105 C.ar    1  UNL1        0.0061
     14 C         139.5745  140.6697  169.3336 C.ar    1  UNL1        0.0367
     15 C         140.3754  139.8289  170.2830 C.ar    1  UNL1        0.1337
     16 O         139.7256  139.2529  171.5061 O.3     1  UNL1       -0.5055
     17 C         141.8262  139.5640  170.0093 C.ar    1  UNL1        0.0367
     18 C         142.4761  140.1400  168.7862 C.ar    1  UNL1        0.0061
     19 H         138.8193  139.4184  171.6771 H       1  UNL1        0.2922
     20 C         141.3341  137.2215  164.4407 C.3     1  UNL1        0.1109
     21 N         141.4404  138.7060  164.6278 N.am    1  UNL1       -0.2991
     22 C         142.6809  139.2995  165.2270 C.2     1  UNL1        0.2490
     23 O         143.8150  138.4084  165.6390 O.2     1  UNL1       -0.2700
     24 H         140.6960  139.2908  164.3573 H       1  UNL1        0.1498
     25 C         144.0863  140.1944  162.4840 C.3     1  UNL1        0.1023
     26 N         143.2121  139.8128  161.3265 N.3     1  UNL1       -0.2687
     27 C         141.7520  140.1566  161.3440 C.3     1  UNL1        0.0752
     28 C         140.8778  139.7751  160.1864 C.3     1  UNL1        0.0526
     29 C         141.4634  139.0498  159.0113 C.3     1  UNL1        0.1638
     30 F         140.5890  138.6682  157.8537 F       1  UNL1       -0.2372
     31 C         142.9233  138.7060  158.9937 C.3     1  UNL1        0.0526
     32 C         143.7977  139.0875  160.1513 C.3     1  UNL1        0.0752
@<TRIPOS>BOND
     1    20    21    1
     2    21    22   am
     3    22    23    2
     4    22     1    1
     5     1     2   ar
     6     2    12    1
     7    12    13   ar
     8    13    14   ar
     9    14    15   ar
    10    15    16    1
    11    15    17   ar
    12    17    18   ar
    13     2     3   ar
    14     3     4   ar
    15     4     5   ar
    16     5     6   ar
    17     6     7   ar
    18     7     8    1
    19     7     9   ar
    20     9    25    1
    21    25    26    1
    22    26    27    1
    23    27    28    1
    24    28    29    1
    25    29    30    1
    26    29    31    1
    27    31    32    1
    28     9    10   ar
    29    10     1   ar
    30    18    12   ar
    31    10     4   ar
    32    32    26    1
    33    21    24    1
    34    16    19    1
    35     8    11    1
@<TRIPOS>MOLECULE
*****
 32 35 0 0 0
SMALL
GASTEIGER

@<TRIPOS>ATOM
      1 C         141.3336  140.8636  165.4995 C.ar    1  UNL1        0.0906
      2 C         141.0196  140.7165  166.9589 C.ar    1  UNL1        0.1496
      3 O         140.0398  139.5910  167.1110 O.2     1  UNL1       -0.4534
      4 C         139.7482  139.0425  165.7456 C.ar    1  UNL1        0.1454
      5 C         138.8579  137.9285  165.2806 C.ar    1  UNL1        0.0406
      6 C         138.7673  137.6010  163.8197 C.ar    1  UNL1        0.0395
      7 C         139.5669  138.3875  162.8237 C.ar    1  UNL1        0.1311
      8 O         139.4762  138.0599  161.3627 O.3     1  UNL1       -0.5058
      9 C         140.4572  139.5015  163.2887 C.ar    1  UNL1        0.0308
     10 C         140.5478  139.8290  164.7497 C.ar    1  UNL1        0.0421
     11 H         138.9201  137.3640  161.0722 H       1  UNL1        0.2922
     12 C         141.5859  141.5488  168.0709 C.ar    1  UNL1        0.0349
     13 C         140.7385  142.5961  168.7303 C.ar    1  UNL1        0.0061
     14 C         141.3048  143.4284  169.8423 C.ar    1  UNL1        0.0367
     15 C         142.7187  143.2134  170.2949 C.ar    1  UNL1        0.1337
     16 O         143.2850  144.0456  171.4069 O.3     1  UNL1       -0.5055
     17 C         143.5661  142.1661  169.6354 C.ar    1  UNL1        0.0367
     18 C         142.9997  141.3338  168.5234 C.ar    1  UNL1        0.0061
     19 H         142.7556  144.6999  171.8188 H       1  UNL1        0.2922
     20 C         144.6818  142.6128  164.2828 C.3     1  UNL1        0.1109
     21 N         143.7462  141.6076  164.8864 N.am    1  UNL1       -0.2991
     22 C         142.2691  141.8688  164.8959 C.2     1  UNL1        0.2490
     23 O         141.7277  143.1352  164.3018 O.2     1  UNL1       -0.2700
     24 H         144.1017  140.7764  165.2763 H       1  UNL1        0.1498
     25 C         141.2568  140.2881  162.2928 C.3     1  UNL1        0.1023
     26 N         140.5618  141.0202  161.1833 N.3     1  UNL1       -0.2687
     27 C         139.3959  141.9131  161.4890 C.3     1  UNL1        0.0752
     28 C         138.7009  142.6453  160.3795 C.3     1  UNL1        0.0526
     29 C         139.1717  142.4845  158.9644 C.3     1  UNL1        0.1638
     30 F         138.4766  143.2167  157.8550 F       1  UNL1       -0.2372
     31 C         140.3375  141.5916  158.6588 C.3     1  UNL1        0.0526
     32 C         141.0326  140.8594  159.7682 C.3     1  UNL1        0.0752
@<TRIPOS>BOND
     1    20    21    1
     2    21    22   am
     3    22    23    2
     4    22     1    1
     5     1     2   ar
     6     2    12    1
     7    12    13   ar
     8    13    14   ar
     9    14    15   ar
    10    15    16    1
    11    15    17   ar
    12    17    18   ar
    13     2     3   ar
    14     3     4   ar
    15     4     5   ar
    16     5     6   ar
    17     6     7   ar
    18     7     8    1
    19     7     9   ar
    20     9    25    1
    21    25    26    1
    22    26    27    1
    23    27    28    1
    24    28    29    1
    25    29    30    1
    26    29    31    1
    27    31    32    1
    28     9    10   ar
    29    10     1   ar
    30    18    12   ar
    31    10     4   ar
    32    32    26    1
    33    21    24    1
    34    16    19    1
    35     8    11    1
