@<TRIPOS>MOLECULE
*****
 31 35 0 0 0
SMALL
GASTEIGER

@<TRIPOS>ATOM
      1 N         142.7854  143.0540  164.2615 N.pl3   1  UNL1       -0.3133
      2 C         142.6039  142.5354  165.6574 C.2     1  UNL1        0.2770
      3 N         141.4918  141.6467  166.1300 N.2     1  UNL1       -0.2204
      4 C         141.7032  141.3766  167.5903 C.3     1  UNL1        0.1537
      5 C         142.9459  142.0984  168.0200 C.3     1  UNL1        0.2350
      6 O         143.5026  142.8146  166.8255 O.2     1  UNL1       -0.4478
      7 C         140.4863  140.7129  167.0169 C.ar    1  UNL1        0.0355
      8 C         140.1467  140.8931  165.5671 C.ar    1  UNL1        0.0007
      9 C         138.9297  140.2294  164.9937 C.ar    1  UNL1        0.0015
     10 C         138.0525  139.3856  165.8703 C.ar    1  UNL1        0.0031
     11 C         138.3921  139.2055  167.3202 C.ar    1  UNL1        0.0366
     12 C         139.6090  139.8691  167.8935 C.ar    1  UNL1        0.1364
     13 O         139.9487  139.6890  169.3435 O.3     1  UNL1       -0.4756
     14 C         141.1656  140.3527  169.9168 C.3     1  UNL1        0.2074
     15 C         142.0429  141.1965  169.0402 C.3     1  UNL1        0.0666
     16 C         143.2519  142.0667  168.8651 C.3     1  UNL1        0.0061
     17 C         142.9415  141.4756  170.2083 C.3     1  UNL1        0.0061
     18 H         142.1387  142.8139  163.5592 H       1  UNL1        0.1466
     19 H         143.5514  143.6344  164.0478 H       1  UNL1        0.1466
     20 C         138.5901  140.4095  163.5438 C.ar    1  UNL1        0.0222
     21 C         138.1037  139.2424  162.7368 C.ar    1  UNL1        0.0991
     22 N         137.7641  139.4226  161.2870 N.ar    1  UNL1       -0.2391
     23 C         137.9109  140.7699  160.6440 C.ar    1  UNL1        0.1356
     24 C         138.3974  141.9370  161.4510 C.ar    1  UNL1        0.1581
     25 C         138.7370  141.7568  162.9010 C.ar    1  UNL1        0.0401
     26 O         138.5442  143.2842  160.8081 O.3     1  UNL1       -0.4650
     27 C         139.8307  144.0435  160.9433 C.3     1  UNL1        0.3082
     28 C         139.8174  145.4599  161.4371 C.3     1  UNL1        0.4380
     29 F         139.8040  146.8762  161.9309 F       1  UNL1       -0.1663
     30 F         140.9122  145.8066  160.4723 F       1  UNL1       -0.1663
     31 F         138.7225  145.1132  162.4021 F       1  UNL1       -0.1663
@<TRIPOS>BOND
     1     1     2    1
     2     2     3    2
     3     3     4    1
     4     4     5    1
     5     5     6    1
     6     4     7    1
     7     7     8   ar
     8     8     9   ar
     9     9    20    1
    10    20    21   ar
    11    21    22   ar
    12    22    23   ar
    13    23    24   ar
    14    24    26    1
    15    26    27    1
    16    27    28    1
    17    28    29    1
    18    28    30    1
    19    28    31    1
    20    24    25   ar
    21     9    10   ar
    22    10    11   ar
    23    11    12   ar
    24    12    13    1
    25    13    14    1
    26    14    15    1
    27    15    16    1
    28    16    17    1
    29     6     2    1
    30    12     7   ar
    31    17    15    1
    32    15     4    1
    33    25    20   ar
    34     1    18    1
    35     1    19    1
@<TRIPOS>MOLECULE
*****
 31 35 0 0 0
SMALL
GASTEIGER

@<TRIPOS>ATOM
      1 N         143.3492  141.8979  164.4745 N.pl3   1  UNL1       -0.3133
      2 C         142.7773  141.8166  165.8588 C.2     1  UNL1        0.2770
      3 N         141.5507  141.0534  166.2625 N.2     1  UNL1       -0.2204
      4 C         141.3469  141.2494  167.7357 C.3     1  UNL1        0.1537
      5 C         142.4476  142.1336  168.2423 C.3     1  UNL1        0.2350
      6 O         143.3316  142.4841  167.0824 O.2     1  UNL1       -0.4478
      7 C         140.3121  140.3785  167.0871 C.ar    1  UNL1        0.0355
      8 C         140.3869  140.0931  165.6164 C.ar    1  UNL1        0.0007
      9 C         139.3520  139.2222  164.9678 C.ar    1  UNL1        0.0015
     10 C         138.2424  138.6367  165.7899 C.ar    1  UNL1        0.0031
     11 C         138.1676  138.9221  167.2607 C.ar    1  UNL1        0.0366
     12 C         139.2024  139.7929  167.9092 C.ar    1  UNL1        0.1364
     13 O         139.1277  140.0783  169.3800 O.3     1  UNL1       -0.4756
     14 C         140.1625  140.9492  170.0285 C.3     1  UNL1        0.2074
     15 C         141.2722  141.5347  169.2064 C.3     1  UNL1        0.0666
     16 C         142.5102  142.3755  169.1062 C.3     1  UNL1        0.0061
     17 C         141.8264  142.2023  170.4300 C.3     1  UNL1        0.0061
     18 H         142.9113  141.4220  163.7322 H       1  UNL1        0.1466
     19 H         144.1625  142.4272  164.3082 H       1  UNL1        0.1466
     20 C         139.4268  138.9369  163.4971 C.ar    1  UNL1        0.0222
     21 C         138.1876  139.0095  162.6550 C.ar    1  UNL1        0.0991
     22 N         138.2624  138.7241  161.1844 N.ar    1  UNL1       -0.2391
     23 C         139.5764  138.3661  160.5557 C.ar    1  UNL1        0.1356
     24 C         140.8156  138.2935  161.3977 C.ar    1  UNL1        0.1581
     25 C         140.7408  138.5789  162.8685 C.ar    1  UNL1        0.0401
     26 O         142.1297  137.9355  160.7691 O.3     1  UNL1       -0.4650
     27 C         143.3762  137.9048  161.6029 C.3     1  UNL1        0.3082
     28 C         144.1653  139.1620  161.8188 C.3     1  UNL1        0.4380
     29 F         144.9544  140.4193  162.0346 F       1  UNL1       -0.1663
     30 F         144.1039  138.9460  163.3018 F       1  UNL1       -0.1663
     31 F         144.2268  139.3782  160.3357 F       1  UNL1       -0.1663
@<TRIPOS>BOND
     1     1     2    1
     2     2     3    2
     3     3     4    1
     4     4     5    1
     5     5     6    1
     6     4     7    1
     7     7     8   ar
     8     8     9   ar
     9     9    20    1
    10    20    21   ar
    11    21    22   ar
    12    22    23   ar
    13    23    24   ar
    14    24    26    1
    15    26    27    1
    16    27    28    1
    17    28    29    1
    18    28    30    1
    19    28    31    1
    20    24    25   ar
    21     9    10   ar
    22    10    11   ar
    23    11    12   ar
    24    12    13    1
    25    13    14    1
    26    14    15    1
    27    15    16    1
    28    16    17    1
    29     6     2    1
    30    12     7   ar
    31    17    15    1
    32    15     4    1
    33    25    20   ar
    34     1    18    1
    35     1    19    1
@<TRIPOS>MOLECULE
*****
 31 35 0 0 0
SMALL
GASTEIGER

@<TRIPOS>ATOM
      1 N         137.5217  141.5252  164.2022 N.pl3   1  UNL1       -0.3133
      2 C         138.4402  142.1656  163.2040 C.2     1  UNL1        0.2770
      3 N         139.8798  142.5201  163.4313 N.2     1  UNL1       -0.2204
      4 C         140.4097  143.1375  162.1710 C.3     1  UNL1        0.1537
      5 C         139.2974  143.1645  161.1649 C.3     1  UNL1        0.2350
      6 O         138.0803  142.5639  161.8033 O.2     1  UNL1       -0.4478
      7 C         141.4198  143.0437  163.2760 C.ar    1  UNL1        0.0355
      8 C         141.0331  142.4477  164.5970 C.ar    1  UNL1        0.0007
      9 C         142.0432  142.3539  165.7020 C.ar    1  UNL1        0.0015
     10 C         143.4401  142.8561  165.4858 C.ar    1  UNL1        0.0031
     11 C         143.8267  143.4521  164.1647 C.ar    1  UNL1        0.0366
     12 C         142.8166  143.5458  163.0598 C.ar    1  UNL1        0.1364
     13 O         143.2033  144.1418  161.7386 O.3     1  UNL1       -0.4756
     14 C         142.1932  144.2356  160.6338 C.3     1  UNL1        0.2074
     15 C         140.7964  143.7335  160.8499 C.3     1  UNL1        0.0666
     16 C         139.4068  143.4977  160.3368 C.3     1  UNL1        0.0061
     17 C         140.4364  144.1317  159.4493 C.3     1  UNL1        0.0061
     18 H         137.8524  141.2997  165.1016 H       1  UNL1        0.1466
     19 H         136.5881  141.3304  163.9578 H       1  UNL1        0.1466
     20 C         141.6565  141.7579  167.0230 C.ar    1  UNL1        0.0222
     21 C         142.4975  142.0172  168.2378 C.ar    1  UNL1        0.0991
     22 N         142.1108  141.4212  169.5588 N.ar    1  UNL1       -0.2391
     23 C         140.8831  140.5659  169.6652 C.ar    1  UNL1        0.1356
     24 C         140.0421  140.3066  168.4505 C.ar    1  UNL1        0.1581
     25 C         140.4289  140.9027  167.1294 C.ar    1  UNL1        0.0401
     26 O         138.8145  139.4514  168.5568 O.3     1  UNL1       -0.4650
     27 C         137.9479  139.2303  167.3526 C.3     1  UNL1        0.3082
     28 C         137.8110  137.8552  166.7693 C.3     1  UNL1        0.4380
     29 F         137.6743  136.4800  166.1860 F       1  UNL1       -0.1663
     30 F         136.6713  137.5726  167.7025 F       1  UNL1       -0.1663
     31 F         138.9509  138.1376  165.8360 F       1  UNL1       -0.1663
@<TRIPOS>BOND
     1     1     2    1
     2     2     3    2
     3     3     4    1
     4     4     5    1
     5     5     6    1
     6     4     7    1
     7     7     8   ar
     8     8     9   ar
     9     9    20    1
    10    20    21   ar
    11    21    22   ar
    12    22    23   ar
    13    23    24   ar
    14    24    26    1
    15    26    27    1
    16    27    28    1
    17    28    29    1
    18    28    30    1
    19    28    31    1
    20    24    25   ar
    21     9    10   ar
    22    10    11   ar
    23    11    12   ar
    24    12    13    1
    25    13    14    1
    26    14    15    1
    27    15    16    1
    28    16    17    1
    29     6     2    1
    30    12     7   ar
    31    17    15    1
    32    15     4    1
    33    25    20   ar
    34     1    18    1
    35     1    19    1
@<TRIPOS>MOLECULE
*****
 31 35 0 0 0
SMALL
GASTEIGER

@<TRIPOS>ATOM
      1 N         138.0597  143.7963  164.1155 N.pl3   1  UNL1       -0.3133
      2 C         138.2594  143.0086  162.8546 C.2     1  UNL1        0.2770
      3 N         138.6070  141.5519  162.7709 N.2     1  UNL1       -0.2204
      4 C         138.7090  141.1824  161.3206 C.3     1  UNL1        0.1537
      5 C         138.4244  142.4108  160.5082 C.3     1  UNL1        0.2350
      6 O         138.1466  143.5394  161.4562 O.2     1  UNL1       -0.4478
      7 C         138.9711  140.0431  162.2605 C.ar    1  UNL1        0.0355
      8 C         138.9044  140.2630  163.7427 C.ar    1  UNL1        0.0007
      9 C         139.1665  139.1237  164.6826 C.ar    1  UNL1        0.0015
     10 C         139.4954  137.7644  164.1401 C.ar    1  UNL1        0.0031
     11 C         139.5621  137.5445  162.6578 C.ar    1  UNL1        0.0366
     12 C         139.3000  138.6838  161.7180 C.ar    1  UNL1        0.1364
     13 O         139.3667  138.4639  160.2357 O.3     1  UNL1       -0.4756
     14 C         139.1045  139.6032  159.2959 C.3     1  UNL1        0.2074
     15 C         138.7757  140.9625  159.8384 C.3     1  UNL1        0.0666
     16 C         138.4345  142.4050  159.6090 C.3     1  UNL1        0.0061
     17 C         138.6629  141.4933  158.4400 C.3     1  UNL1        0.0061
     18 H         138.1559  143.3566  164.9911 H       1  UNL1        0.1466
     19 H         137.8324  144.7530  164.0674 H       1  UNL1        0.1466
     20 C         139.0998  139.3436  166.1649 C.ar    1  UNL1        0.0222
     21 C         137.9185  138.8468  166.9444 C.ar    1  UNL1        0.0991
     22 N         137.8518  139.0668  168.4266 N.ar    1  UNL1       -0.2391
     23 C         138.9664  139.7835  169.1294 C.ar    1  UNL1        0.1356
     24 C         140.1478  140.2803  168.3499 C.ar    1  UNL1        0.1581
     25 C         140.2145  140.0603  166.8676 C.ar    1  UNL1        0.0401
     26 O         141.2624  140.9970  169.0526 O.3     1  UNL1       -0.4650
     27 C         141.2147  142.4882  169.2082 C.3     1  UNL1        0.3082
     28 C         140.2455  143.1114  170.1686 C.3     1  UNL1        0.4380
     29 F         139.2764  143.7347  171.1289 F       1  UNL1       -0.1663
     30 F         140.4791  141.9874  171.1339 F       1  UNL1       -0.1663
     31 F         140.0119  144.2356  169.2033 F       1  UNL1       -0.1663
@<TRIPOS>BOND
     1     1     2    1
     2     2     3    2
     3     3     4    1
     4     4     5    1
     5     5     6    1
     6     4     7    1
     7     7     8   ar
     8     8     9   ar
     9     9    20    1
    10    20    21   ar
    11    21    22   ar
    12    22    23   ar
    13    23    24   ar
    14    24    26    1
    15    26    27    1
    16    27    28    1
    17    28    29    1
    18    28    30    1
    19    28    31    1
    20    24    25   ar
    21     9    10   ar
    22    10    11   ar
    23    11    12   ar
    24    12    13    1
    25    13    14    1
    26    14    15    1
    27    15    16    1
    28    16    17    1
    29     6     2    1
    30    12     7   ar
    31    17    15    1
    32    15     4    1
    33    25    20   ar
    34     1    18    1
    35     1    19    1
@<TRIPOS>MOLECULE
*****
 31 35 0 0 0
SMALL
GASTEIGER

@<TRIPOS>ATOM
      1 N         145.0045  139.2071  163.3416 N.pl3   1  UNL1       -0.3133
      2 C         143.9354  139.0380  162.3030 C.2     1  UNL1        0.2770
      3 N         142.4572  139.0098  162.5559 N.2     1  UNL1       -0.2204
      4 C         141.7651  138.8218  161.2384 C.3     1  UNL1        0.1537
      5 C         142.8157  138.7338  160.1714 C.3     1  UNL1        0.2350
      6 O         144.1569  138.8674  160.8293 O.2     1  UNL1       -0.4478
      7 C         140.8320  138.9270  162.4082 C.ar    1  UNL1        0.0355
      8 C         141.3813  139.1173  163.7909 C.ar    1  UNL1        0.0007
      9 C         140.4483  139.2225  164.9608 C.ar    1  UNL1        0.0015
     10 C         138.9659  139.1374  164.7478 C.ar    1  UNL1        0.0031
     11 C         138.4166  138.9471  163.3649 C.ar    1  UNL1        0.0366
     12 C         139.3497  138.8419  162.1952 C.ar    1  UNL1        0.1364
     13 O         138.8004  138.6516  160.8124 O.3     1  UNL1       -0.4756
     14 C         139.7334  138.5464  159.6426 C.3     1  UNL1        0.2074
     15 C         141.2158  138.6315  159.8557 C.3     1  UNL1        0.0666
     16 C         142.6103  138.6199  159.3033 C.3     1  UNL1        0.0061
     17 C         141.4373  138.4609  158.3819 C.3     1  UNL1        0.0061
     18 H         144.7582  139.3127  164.2889 H       1  UNL1        0.1466
     19 H         145.9524  139.2126  163.0759 H       1  UNL1        0.1466
     20 C         140.9976  139.4128  166.3435 C.ar    1  UNL1        0.0222
     21 C         142.4458  139.1364  166.6198 C.ar    1  UNL1        0.0991
     22 N         142.9951  139.3267  168.0026 N.ar    1  UNL1       -0.2391
     23 C         142.0962  139.7934  169.1090 C.ar    1  UNL1        0.1356
     24 C         140.6480  140.0698  168.8327 C.ar    1  UNL1        0.1581
     25 C         140.0987  139.8795  167.4499 C.ar    1  UNL1        0.0401
     26 O         139.7492  140.5365  169.9391 O.3     1  UNL1       -0.4650
     27 C         139.5559  142.0044  170.1797 C.3     1  UNL1        0.3082
     28 C         140.7354  142.9307  170.1513 C.3     1  UNL1        0.4380
     29 F         141.9148  143.8571  170.1229 F       1  UNL1       -0.1663
     30 F         141.3131  142.2319  171.3462 F       1  UNL1       -0.1663
     31 F         140.1577  143.6297  168.9564 F       1  UNL1       -0.1663
@<TRIPOS>BOND
     1     1     2    1
     2     2     3    2
     3     3     4    1
     4     4     5    1
     5     5     6    1
     6     4     7    1
     7     7     8   ar
     8     8     9   ar
     9     9    20    1
    10    20    21   ar
    11    21    22   ar
    12    22    23   ar
    13    23    24   ar
    14    24    26    1
    15    26    27    1
    16    27    28    1
    17    28    29    1
    18    28    30    1
    19    28    31    1
    20    24    25   ar
    21     9    10   ar
    22    10    11   ar
    23    11    12   ar
    24    12    13    1
    25    13    14    1
    26    14    15    1
    27    15    16    1
    28    16    17    1
    29     6     2    1
    30    12     7   ar
    31    17    15    1
    32    15     4    1
    33    25    20   ar
    34     1    18    1
    35     1    19    1
@<TRIPOS>MOLECULE
*****
 31 35 0 0 0
SMALL
GASTEIGER

@<TRIPOS>ATOM
      1 N         141.2629  136.8435  163.3054 N.pl3   1  UNL1       -0.3133
      2 C         140.5246  137.8787  162.5095 C.2     1  UNL1        0.2770
      3 N         140.1407  139.2484  162.9854 N.2     1  UNL1       -0.2204
      4 C         139.4194  139.9420  161.8679 C.3     1  UNL1        0.1537
      5 C         139.3576  139.0010  160.7014 C.3     1  UNL1        0.2350
      6 O         140.0406  137.7258  161.0979 O.2     1  UNL1       -0.4478
      7 C         139.5581  140.7697  163.1112 C.ar    1  UNL1        0.0355
      8 C         140.2577  140.2068  164.3128 C.ar    1  UNL1        0.0007
      9 C         140.3964  141.0345  165.5561 C.ar    1  UNL1        0.0015
     10 C         139.8355  142.4250  165.5978 C.ar    1  UNL1        0.0031
     11 C         139.1359  142.9879  164.3962 C.ar    1  UNL1        0.0366
     12 C         138.9972  142.1603  163.1530 C.ar    1  UNL1        0.1364
     13 O         138.2976  142.7231  161.9513 O.3     1  UNL1       -0.4756
     14 C         138.1589  141.8955  160.7081 C.3     1  UNL1        0.2074
     15 C         138.7199  140.5049  160.6664 C.3     1  UNL1        0.0666
     16 C         138.9636  139.2243  159.9245 C.3     1  UNL1        0.0061
     17 C         138.2359  140.3521  159.2549 C.3     1  UNL1        0.0061
     18 H         141.5403  137.0387  164.2296 H       1  UNL1        0.1466
     19 H         141.4700  135.9689  162.9035 H       1  UNL1        0.1466
     20 C         141.0960  140.4716  166.7576 C.ar    1  UNL1        0.0222
     21 C         142.2820  139.5703  166.5812 C.ar    1  UNL1        0.0991
     22 N         142.9816  139.0075  167.7827 N.ar    1  UNL1       -0.2391
     23 C         142.4951  139.3458  169.1607 C.ar    1  UNL1        0.1356
     24 C         141.3091  140.2471  169.3372 C.ar    1  UNL1        0.1581
     25 C         140.6095  140.8100  168.1356 C.ar    1  UNL1        0.0401
     26 O         140.8227  140.5854  170.7152 O.3     1  UNL1       -0.4650
     27 C         141.0177  141.9691  171.2606 C.3     1  UNL1        0.3082
     28 C         140.6173  143.1610  170.4426 C.3     1  UNL1        0.4380
     29 F         140.2169  144.3529  169.6247 F       1  UNL1       -0.1663
     30 F         142.0626  143.5063  170.2383 F       1  UNL1       -0.1663
     31 F         139.1719  142.8157  170.6469 F       1  UNL1       -0.1663
@<TRIPOS>BOND
     1     1     2    1
     2     2     3    2
     3     3     4    1
     4     4     5    1
     5     5     6    1
     6     4     7    1
     7     7     8   ar
     8     8     9   ar
     9     9    20    1
    10    20    21   ar
    11    21    22   ar
    12    22    23   ar
    13    23    24   ar
    14    24    26    1
    15    26    27    1
    16    27    28    1
    17    28    29    1
    18    28    30    1
    19    28    31    1
    20    24    25   ar
    21     9    10   ar
    22    10    11   ar
    23    11    12   ar
    24    12    13    1
    25    13    14    1
    26    14    15    1
    27    15    16    1
    28    16    17    1
    29     6     2    1
    30    12     7   ar
    31    17    15    1
    32    15     4    1
    33    25    20   ar
    34     1    18    1
    35     1    19    1
@<TRIPOS>MOLECULE
*****
 31 35 0 0 0
SMALL
GASTEIGER

@<TRIPOS>ATOM
      1 N         138.3726  139.4116  166.2822 N.pl3   1  UNL1       -0.3133
      2 C         139.3586  139.9035  167.3002 C.2     1  UNL1        0.2770
      3 N         140.5702  140.7422  167.0204 N.2     1  UNL1       -0.2204
      4 C         141.2664  141.0001  168.3239 C.3     1  UNL1        0.1537
      5 C         140.4849  140.3206  169.4091 C.3     1  UNL1        0.2350
      6 O         139.3058  139.6429  168.7764 O.2     1  UNL1       -0.4478
      7 C         141.9405  141.6244  167.1382 C.ar    1  UNL1        0.0355
      8 C         141.3577  141.4514  165.7669 C.ar    1  UNL1        0.0007
      9 C         142.0319  142.0757  164.5812 C.ar    1  UNL1        0.0015
     10 C         143.2888  142.8729  164.7668 C.ar    1  UNL1        0.0031
     11 C         143.8716  143.0459  166.1382 C.ar    1  UNL1        0.0366
     12 C         143.1975  142.4216  167.3238 C.ar    1  UNL1        0.1364
     13 O         143.7803  142.5946  168.6952 O.3     1  UNL1       -0.4756
     14 C         143.1061  141.9703  169.8808 C.3     1  UNL1        0.2074
     15 C         141.8492  141.1730  169.6952 C.3     1  UNL1        0.0666
     16 C         140.7343  140.3523  170.2725 C.3     1  UNL1        0.0061
     17 C         141.7964  140.9125  171.1714 C.3     1  UNL1        0.0061
     18 H         138.4932  139.6364  165.3314 H       1  UNL1        0.1466
     19 H         137.6049  138.8640  166.5650 H       1  UNL1        0.1466
     20 C         141.4491  141.9027  163.2100 C.ar    1  UNL1        0.0222
     21 C         141.7302  142.9178  162.1420 C.ar    1  UNL1        0.0991
     22 N         141.1474  142.7448  160.7708 N.ar    1  UNL1       -0.2391
     23 C         140.2834  141.5567  160.4674 C.ar    1  UNL1        0.1356
     24 C         140.0023  140.5415  161.5354 C.ar    1  UNL1        0.1581
     25 C         140.5852  140.7146  162.9067 C.ar    1  UNL1        0.0401
     26 O         139.1384  139.3534  161.2321 O.3     1  UNL1       -0.4650
     27 C         139.6050  137.9748  161.5947 C.3     1  UNL1        0.3082
     28 C         139.7259  137.5789  163.0365 C.3     1  UNL1        0.4380
     29 F         139.8468  137.1830  164.4782 F       1  UNL1       -0.1663
     30 F         138.3253  138.0550  163.2847 F       1  UNL1       -0.1663
     31 F         141.1266  137.1027  162.7883 F       1  UNL1       -0.1663
@<TRIPOS>BOND
     1     1     2    1
     2     2     3    2
     3     3     4    1
     4     4     5    1
     5     5     6    1
     6     4     7    1
     7     7     8   ar
     8     8     9   ar
     9     9    20    1
    10    20    21   ar
    11    21    22   ar
    12    22    23   ar
    13    23    24   ar
    14    24    26    1
    15    26    27    1
    16    27    28    1
    17    28    29    1
    18    28    30    1
    19    28    31    1
    20    24    25   ar
    21     9    10   ar
    22    10    11   ar
    23    11    12   ar
    24    12    13    1
    25    13    14    1
    26    14    15    1
    27    15    16    1
    28    16    17    1
    29     6     2    1
    30    12     7   ar
    31    17    15    1
    32    15     4    1
    33    25    20   ar
    34     1    18    1
    35     1    19    1
@<TRIPOS>MOLECULE
*****
 31 35 0 0 0
SMALL
GASTEIGER

@<TRIPOS>ATOM
      1 N         144.0445  142.9707  165.8277 N.pl3   1  UNL1       -0.3133
      2 C         143.2700  142.4717  167.0115 C.2     1  UNL1        0.2770
      3 N         142.0195  141.6449  166.9620 N.2     1  UNL1       -0.2204
      4 C         141.5868  141.3743  168.3725 C.3     1  UNL1        0.1537
      5 C         142.5699  142.0339  169.2936 C.3     1  UNL1        0.2350
      6 O         143.6101  142.7121  168.4525 O.2     1  UNL1       -0.4478
      7 C         140.6900  140.7704  167.3326 C.ar    1  UNL1        0.0355
      8 C         140.9977  140.9579  165.8766 C.ar    1  UNL1        0.0007
      9 C         140.1009  140.3541  164.8367 C.ar    1  UNL1        0.0015
     10 C         138.8965  139.5627  165.2530 C.ar    1  UNL1        0.0031
     11 C         138.5889  139.3753  166.7091 C.ar    1  UNL1        0.0366
     12 C         139.4856  139.9791  167.7489 C.ar    1  UNL1        0.1364
     13 O         139.1780  139.7916  169.2050 O.3     1  UNL1       -0.4756
     14 C         140.0747  140.3954  170.2448 C.3     1  UNL1        0.2074
     15 C         141.2791  141.1868  169.8286 C.3     1  UNL1        0.0666
     16 C         142.4922  141.9922  170.1886 C.3     1  UNL1        0.0061
     17 C         141.6192  141.4271  171.2696 C.3     1  UNL1        0.0061
     18 H         143.7399  142.7595  164.9156 H       1  UNL1        0.1466
     19 H         144.8575  143.5093  165.9628 H       1  UNL1        0.1466
     20 C         140.4086  140.5416  163.3806 C.ar    1  UNL1        0.0222
     21 C         139.6326  139.7815  162.3462 C.ar    1  UNL1        0.0991
     22 N         139.9402  139.9689  160.8901 N.ar    1  UNL1       -0.2391
     23 C         141.0239  140.9166  160.4685 C.ar    1  UNL1        0.1356
     24 C         141.7999  141.6767  161.5029 C.ar    1  UNL1        0.1581
     25 C         141.4922  141.4891  162.9590 C.ar    1  UNL1        0.0401
     26 O         142.8835  142.6243  161.0813 O.3     1  UNL1       -0.4650
     27 C         144.3045  142.1506  161.0007 C.3     1  UNL1        0.3082
     28 C         144.9611  141.5406  162.2036 C.3     1  UNL1        0.4380
     29 F         145.6177  140.9307  163.4064 F       1  UNL1       -0.1663
     30 F         145.2343  142.9108  162.7494 F       1  UNL1       -0.1663
     31 F         144.6880  140.1703  161.6579 F       1  UNL1       -0.1663
@<TRIPOS>BOND
     1     1     2    1
     2     2     3    2
     3     3     4    1
     4     4     5    1
     5     5     6    1
     6     4     7    1
     7     7     8   ar
     8     8     9   ar
     9     9    20    1
    10    20    21   ar
    11    21    22   ar
    12    22    23   ar
    13    23    24   ar
    14    24    26    1
    15    26    27    1
    16    27    28    1
    17    28    29    1
    18    28    30    1
    19    28    31    1
    20    24    25   ar
    21     9    10   ar
    22    10    11   ar
    23    11    12   ar
    24    12    13    1
    25    13    14    1
    26    14    15    1
    27    15    16    1
    28    16    17    1
    29     6     2    1
    30    12     7   ar
    31    17    15    1
    32    15     4    1
    33    25    20   ar
    34     1    18    1
    35     1    19    1
@<TRIPOS>MOLECULE
*****
 31 35 0 0 0
SMALL
GASTEIGER

@<TRIPOS>ATOM
      1 N         138.4560  140.2523  164.3620 N.pl3   1  UNL1       -0.3133
      2 C         139.0316  141.2003  163.3519 C.2     1  UNL1        0.2770
      3 N         140.3843  141.8450  163.4186 N.2     1  UNL1       -0.2204
      4 C         140.5443  142.7130  162.2057 C.3     1  UNL1        0.1537
      5 C         139.2904  142.6047  161.3895 C.3     1  UNL1        0.2350
      6 O         138.3556  141.6698  162.0979 O.2     1  UNL1       -0.4478
      7 C         141.7311  142.7216  163.1230 C.ar    1  UNL1        0.0355
      8 C         141.7153  141.8998  164.3776 C.ar    1  UNL1        0.0007
      9 C         142.9021  141.9084  165.2949 C.ar    1  UNL1        0.0015
     10 C         144.1048  142.7389  164.9575 C.ar    1  UNL1        0.0031
     11 C         144.1206  143.5608  163.7027 C.ar    1  UNL1        0.0366
     12 C         142.9338  143.5521  162.7855 C.ar    1  UNL1        0.1364
     13 O         142.9496  144.3741  161.5308 O.3     1  UNL1       -0.4756
     14 C         141.7628  144.3654  160.6136 C.3     1  UNL1        0.2074
     15 C         140.5601  143.5349  160.9510 C.3     1  UNL1        0.0666
     16 C         139.1806  143.0505  160.6162 C.3     1  UNL1        0.0061
     17 C         139.8840  144.0045  159.6970 C.3     1  UNL1        0.0061
     18 H         138.9798  140.0028  165.1574 H       1  UNL1        0.1466
     19 H         137.5544  139.8797  164.2296 H       1  UNL1        0.1466
     20 C         142.8863  141.0865  166.5496 C.ar    1  UNL1        0.0222
     21 C         143.0390  139.5963  166.4720 C.ar    1  UNL1        0.0991
     22 N         143.0232  138.7744  167.7267 N.ar    1  UNL1       -0.2391
     23 C         142.8546  139.4427  169.0590 C.ar    1  UNL1        0.1356
     24 C         142.7019  140.9329  169.1366 C.ar    1  UNL1        0.1581
     25 C         142.7178  141.7548  167.8818 C.ar    1  UNL1        0.0401
     26 O         142.5334  141.6012  170.4688 O.3     1  UNL1       -0.4650
     27 C         141.1822  142.0935  170.8953 C.3     1  UNL1        0.3082
     28 C         140.6336  143.3676  170.3244 C.3     1  UNL1        0.4380
     29 F         140.0850  144.6416  169.7536 F       1  UNL1       -0.1663
     30 F         139.2451  142.8058  170.4048 F       1  UNL1       -0.1663
     31 F         142.0221  143.9294  170.2440 F       1  UNL1       -0.1663
@<TRIPOS>BOND
     1     1     2    1
     2     2     3    2
     3     3     4    1
     4     4     5    1
     5     5     6    1
     6     4     7    1
     7     7     8   ar
     8     8     9   ar
     9     9    20    1
    10    20    21   ar
    11    21    22   ar
    12    22    23   ar
    13    23    24   ar
    14    24    26    1
    15    26    27    1
    16    27    28    1
    17    28    29    1
    18    28    30    1
    19    28    31    1
    20    24    25   ar
    21     9    10   ar
    22    10    11   ar
    23    11    12   ar
    24    12    13    1
    25    13    14    1
    26    14    15    1
    27    15    16    1
    28    16    17    1
    29     6     2    1
    30    12     7   ar
    31    17    15    1
    32    15     4    1
    33    25    20   ar
    34     1    18    1
    35     1    19    1
