@<TRIPOS>MOLECULE
*****
 37 41 0 0 0
SMALL
GASTEIGER

@<TRIPOS>ATOM
      1 N         143.3793  140.2227  163.2732 N.3     1  UNL1       -0.2712
      2 C         142.7050  141.5312  162.9841 C.3     1  UNL1        0.0739
      3 C         142.1552  142.5343  163.9544 C.3     1  UNL1        0.0387
      4 C         142.1439  142.4768  165.4532 C.3     1  UNL1        0.0923
      5 N         142.6795  141.4021  166.3520 N.pl3   1  UNL1       -0.3060
      6 C         143.3588  140.1192  165.9740 C.3     1  UNL1        0.1081
      7 C         143.6702  139.5944  164.6038 C.3     1  UNL1        0.0938
      8 C         142.5139  141.6418  167.8235 C.2     1  UNL1        0.0486
      9 C         143.5757  142.3752  168.5880 C.2     1  UNL1        0.0127
     10 C         143.4102  142.6149  170.0595 C.2     1  UNL1        0.0096
     11 C         142.1827  142.1212  170.7664 C.3     1  UNL1        0.1700
     12 O         142.0171  142.3609  172.2378 O.3     1  UNL1       -0.3743
     13 C         141.1209  141.3878  170.0018 C.2     1  UNL1        0.0833
     14 N         139.8934  140.8941  170.7086 N.am    1  UNL1       -0.1770
     15 C         138.8316  140.1607  169.9441 C.2     1  UNL1        0.2689
     16 O         137.6042  139.6670  170.6510 O.2     1  UNL1       -0.2680
     17 C         138.9971  139.9210  168.4727 C.2     1  UNL1        0.0599
     18 C         140.2246  140.4147  167.7657 C.2     1  UNL1        0.0070
     19 C         141.2865  141.1481  168.5304 C.2     1  UNL1        0.0274
     20 H         141.5377  141.7491  172.7611 H       1  UNL1        0.2113
     21 C         143.8210  139.4391  162.0729 C.3     1  UNL1        0.0723
     22 C         143.3500  138.0275  161.8839 C.3     1  UNL1        0.0212
     23 C         141.9356  137.7587  161.4631 C.3     1  UNL1        0.0488
     24 C         140.9140  137.3520  162.4834 C.3     1  UNL1        0.2054
     25 O         139.4982  137.8318  162.3597 O.3     1  UNL1       -0.4754
     26 O         138.7971  145.5740  161.7969 O.2     1  UNL1       -0.2748
     27 C         138.6294  144.3083  162.5841 C.2     1  UNL1        0.2264
     28 C         138.0602  144.3576  163.9710 C.3     1  UNL1        0.0901
     29 C         137.8925  143.0918  164.7583 C.3     1  UNL1        0.0372
     30 C         138.2939  141.7768  164.1587 C.ar    1  UNL1       -0.0080
     31 C         138.1262  140.5111  164.9459 C.ar    1  UNL1        0.0001
     32 C         138.5276  139.1961  164.3463 C.ar    1  UNL1        0.0367
     33 C         139.0968  139.1468  162.9593 C.ar    1  UNL1        0.1398
     34 C         139.2645  140.4125  162.1720 C.ar    1  UNL1        0.0512
     35 C         138.8631  141.7276  162.7718 C.ar    1  UNL1        0.0493
     36 N         139.0308  142.9933  161.9845 N.am    1  UNL1       -0.2841
     37 H         139.4043  142.9609  161.0742 H       1  UNL1        0.1548
@<TRIPOS>BOND
     1    26    27    2
     2    27    28    1
     3    28    29    1
     4    29    30    1
     5    30    31   ar
     6    31    32   ar
     7    32    33   ar
     8    33    25    1
     9    25    24    1
    10    24    23    1
    11    23    22    1
    12    22    21    1
    13    21     1    1
    14     1     2    1
    15     2     3    1
    16     3     4    1
    17     4     5    1
    18     5     8    1
    19     8     9    1
    20     9    10    2
    21    10    11    1
    22    11    12    1
    23    11    13    1
    24    13    14    2
    25    14    15    1
    26    15    16    2
    27    15    17    1
    28    17    18    2
    29    18    19    1
    30     5     6    1
    31     6     7    1
    32    33    34   ar
    33    34    35   ar
    34    35    36    1
    35    36    27   am
    36    35    30   ar
    37     7     1    1
    38    19     8    2
    39    19    13    1
    40    12    20    1
    41    36    37    1
@<TRIPOS>MOLECULE
*****
 37 41 0 0 0
SMALL
GASTEIGER

@<TRIPOS>ATOM
      1 N         142.3972  143.7123  162.7263 N.3     1  UNL1       -0.2712
      2 C         143.5611  144.3911  163.3857 C.3     1  UNL1        0.0739
      3 C         144.1687  144.1116  164.7283 C.3     1  UNL1        0.0387
      4 C         143.7626  143.0845  165.7432 C.3     1  UNL1        0.0923
      5 N         142.6486  142.0830  165.6660 N.pl3   1  UNL1       -0.3060
      6 C         141.6655  141.8614  164.5551 C.3     1  UNL1        0.1081
      7 C         141.5536  142.5865  163.2467 C.3     1  UNL1        0.0938
      8 C         142.4977  141.1843  166.8575 C.2     1  UNL1        0.0486
      9 C         143.1298  139.8241  166.8558 C.2     1  UNL1        0.0127
     10 C         142.9789  138.9254  168.0473 C.2     1  UNL1        0.0096
     11 C         142.1959  139.3870  169.2405 C.3     1  UNL1        0.1700
     12 O         142.0449  138.4883  170.4320 O.3     1  UNL1       -0.3743
     13 C         141.5637  140.7473  169.2422 C.2     1  UNL1        0.0833
     14 N         140.7806  141.2089  170.4354 N.am    1  UNL1       -0.1770
     15 C         140.1485  142.5691  170.4371 C.2     1  UNL1        0.2689
     16 O         139.3654  143.0307  171.6303 O.2     1  UNL1       -0.2680
     17 C         140.2993  143.4679  169.2457 C.2     1  UNL1        0.0599
     18 C         141.0824  143.0062  168.0524 C.2     1  UNL1        0.0070
     19 C         141.7146  141.6459  168.0507 C.2     1  UNL1        0.0274
     20 H         141.2745  138.5396  170.9629 H       1  UNL1        0.2113
     21 C         142.0282  144.2275  161.3668 C.3     1  UNL1        0.0723
     22 C         140.5965  144.5397  161.0462 C.3     1  UNL1        0.0212
     23 C         139.7913  145.4021  161.9724 C.3     1  UNL1        0.0488
     24 C         138.6066  144.8282  162.6914 C.3     1  UNL1        0.2054
     25 O         137.8374  143.6933  162.0828 O.3     1  UNL1       -0.4754
     26 O         137.7901  138.2263  167.6379 O.2     1  UNL1       -0.2748
     27 C         138.0753  138.6396  166.2244 C.2     1  UNL1        0.2264
     28 C         138.6300  137.6440  165.2493 C.3     1  UNL1        0.0901
     29 C         138.9152  138.0573  163.8358 C.3     1  UNL1        0.0372
     30 C         138.6458  139.4663  163.3975 C.ar    1  UNL1       -0.0080
     31 C         138.9310  139.8796  161.9841 C.ar    1  UNL1        0.0001
     32 C         138.6615  141.2886  161.5458 C.ar    1  UNL1        0.0367
     33 C         138.1068  142.2843  162.5210 C.ar    1  UNL1        0.1398
     34 C         137.8216  141.8710  163.9345 C.ar    1  UNL1        0.0512
     35 C         138.0911  140.4619  164.3727 C.ar    1  UNL1        0.0493
     36 N         137.8059  140.0486  165.7861 N.am    1  UNL1       -0.2841
     37 H         137.4418  140.7021  166.4262 H       1  UNL1        0.1548
@<TRIPOS>BOND
     1    26    27    2
     2    27    28    1
     3    28    29    1
     4    29    30    1
     5    30    31   ar
     6    31    32   ar
     7    32    33   ar
     8    33    25    1
     9    25    24    1
    10    24    23    1
    11    23    22    1
    12    22    21    1
    13    21     1    1
    14     1     2    1
    15     2     3    1
    16     3     4    1
    17     4     5    1
    18     5     8    1
    19     8     9    1
    20     9    10    2
    21    10    11    1
    22    11    12    1
    23    11    13    1
    24    13    14    2
    25    14    15    1
    26    15    16    2
    27    15    17    1
    28    17    18    2
    29    18    19    1
    30     5     6    1
    31     6     7    1
    32    33    34   ar
    33    34    35   ar
    34    35    36    1
    35    36    27   am
    36    35    30   ar
    37     7     1    1
    38    19     8    2
    39    19    13    1
    40    12    20    1
    41    36    37    1
@<TRIPOS>MOLECULE
*****
 37 41 0 0 0
SMALL
GASTEIGER

@<TRIPOS>ATOM
      1 N         143.1100  141.0907  161.8884 N.3     1  UNL1       -0.2712
      2 C         144.2407  140.3125  162.4933 C.3     1  UNL1        0.0739
      3 C         144.4275  139.8908  163.9206 C.3     1  UNL1        0.0387
      4 C         143.5298  140.1432  165.0956 C.3     1  UNL1        0.0923
      5 N         142.2236  140.8797  165.1333 N.pl3   1  UNL1       -0.3060
      6 C         141.4924  141.5456  164.0056 C.3     1  UNL1        0.1081
      7 C         141.8869  141.6395  162.5614 C.3     1  UNL1        0.0938
      8 C         141.5609  140.9609  166.4766 C.2     1  UNL1        0.0486
      9 C         142.1298  141.8517  167.5409 C.2     1  UNL1        0.0127
     10 C         141.4671  141.9330  168.8841 C.2     1  UNL1        0.0096
     11 C         140.2355  141.1235  169.1630 C.3     1  UNL1        0.1700
     12 O         139.5728  141.2047  170.5062 O.3     1  UNL1       -0.3743
     13 C         139.6666  140.2327  168.0987 C.2     1  UNL1        0.0833
     14 N         138.4350  139.4232  168.3776 N.am    1  UNL1       -0.1770
     15 C         137.8661  138.5324  167.3133 C.2     1  UNL1        0.2689
     16 O         136.6344  137.7229  167.5922 O.2     1  UNL1       -0.2680
     17 C         138.5287  138.4511  165.9700 C.2     1  UNL1        0.0599
     18 C         139.7604  139.2606  165.6911 C.2     1  UNL1        0.0070
     19 C         140.3293  140.1514  166.7555 C.2     1  UNL1        0.0274
     20 H         139.1149  140.4623  170.8484 H       1  UNL1        0.2113
     21 C         143.2164  141.3551  160.4157 C.3     1  UNL1        0.0723
     22 C         144.0007  142.5339  159.9201 C.3     1  UNL1        0.0212
     23 C         143.7293  143.0952  158.5559 C.3     1  UNL1        0.0488
     24 C         142.5548  144.0024  158.3382 C.3     1  UNL1        0.2054
     25 O         142.0930  144.9091  159.4403 O.3     1  UNL1       -0.4754
     26 O         138.3739  145.4600  166.2678 O.2     1  UNL1       -0.2748
     27 C         138.5089  144.8405  164.9084 C.2     1  UNL1        0.2264
     28 C         137.5393  143.7853  164.4653 C.3     1  UNL1        0.0901
     29 C         137.6744  143.1658  163.1059 C.3     1  UNL1        0.0372
     30 C         138.7790  143.6017  162.1895 C.ar    1  UNL1       -0.0080
     31 C         138.9141  142.9822  160.8301 C.ar    1  UNL1        0.0001
     32 C         140.0187  143.4180  159.9137 C.ar    1  UNL1        0.0367
     33 C         140.9884  144.4733  160.3567 C.ar    1  UNL1        0.1398
     34 C         140.8533  145.0928  161.7162 C.ar    1  UNL1        0.0512
     35 C         139.7486  144.6569  162.6326 C.ar    1  UNL1        0.0493
     36 N         139.6135  145.2763  163.9920 N.am    1  UNL1       -0.2841
     37 H         140.2499  145.9689  164.2828 H       1  UNL1        0.1548
@<TRIPOS>BOND
     1    26    27    2
     2    27    28    1
     3    28    29    1
     4    29    30    1
     5    30    31   ar
     6    31    32   ar
     7    32    33   ar
     8    33    25    1
     9    25    24    1
    10    24    23    1
    11    23    22    1
    12    22    21    1
    13    21     1    1
    14     1     2    1
    15     2     3    1
    16     3     4    1
    17     4     5    1
    18     5     8    1
    19     8     9    1
    20     9    10    2
    21    10    11    1
    22    11    12    1
    23    11    13    1
    24    13    14    2
    25    14    15    1
    26    15    16    2
    27    15    17    1
    28    17    18    2
    29    18    19    1
    30     5     6    1
    31     6     7    1
    32    33    34   ar
    33    34    35   ar
    34    35    36    1
    35    36    27   am
    36    35    30   ar
    37     7     1    1
    38    19     8    2
    39    19    13    1
    40    12    20    1
    41    36    37    1
@<TRIPOS>MOLECULE
*****
 37 41 0 0 0
SMALL
GASTEIGER

@<TRIPOS>ATOM
      1 N         143.4723  140.7771  161.9145 N.3     1  UNL1       -0.2712
      2 C         144.4246  139.8323  162.5857 C.3     1  UNL1        0.0739
      3 C         144.4367  139.3746  164.0141 C.3     1  UNL1        0.0387
      4 C         143.4996  139.7486  165.1240 C.3     1  UNL1        0.0923
      5 N         142.3189  140.6726  165.0797 N.pl3   1  UNL1       -0.3060
      6 C         141.7836  141.4509  163.9145 C.3     1  UNL1        0.1081
      7 C         142.2969  141.4974  162.5058 C.3     1  UNL1        0.0938
      8 C         141.5750  140.8406  166.3714 C.2     1  UNL1        0.0486
      9 C         142.0731  141.8085  167.4034 C.2     1  UNL1        0.0127
     10 C         141.3292  141.9764  168.6951 C.2     1  UNL1        0.0096
     11 C         140.0872  141.1764  168.9548 C.3     1  UNL1        0.1700
     12 O         139.3433  141.3443  170.2464 O.3     1  UNL1       -0.3743
     13 C         139.5891  140.2085  167.9228 C.2     1  UNL1        0.0833
     14 N         138.3471  139.4085  168.1825 N.am    1  UNL1       -0.1770
     15 C         137.8490  138.4406  167.1505 C.2     1  UNL1        0.2689
     16 O         136.6070  137.6407  167.4102 O.2     1  UNL1       -0.2680
     17 C         138.5928  138.2726  165.8588 C.2     1  UNL1        0.0599
     18 C         139.8349  139.0727  165.5991 C.2     1  UNL1        0.0070
     19 C         140.3330  140.0406  166.6311 C.2     1  UNL1        0.0274
     20 H         138.8694  140.6231  170.6113 H       1  UNL1        0.2113
     21 C         143.7293  141.0357  160.4595 C.3     1  UNL1        0.0723
     22 C         143.5205  139.9414  159.4549 C.3     1  UNL1        0.0212
     23 C         142.4665  138.9000  159.6884 C.3     1  UNL1        0.0488
     24 C         141.5941  138.4487  158.5548 C.3     1  UNL1        0.2054
     25 O         140.1048  138.4000  158.7279 O.3     1  UNL1       -0.4754
     26 O         137.8480  144.8285  162.5135 O.2     1  UNL1       -0.2748
     27 C         137.9622  143.3344  162.4441 C.2     1  UNL1        0.2264
     28 C         137.4384  142.4892  163.5671 C.3     1  UNL1        0.0901
     29 C         137.5526  140.9952  163.4977 C.3     1  UNL1        0.0372
     30 C         138.1907  140.3464  162.3053 C.ar    1  UNL1       -0.0080
     31 C         138.3049  138.8523  162.2358 C.ar    1  UNL1        0.0001
     32 C         138.9429  138.2035  161.0434 C.ar    1  UNL1        0.0367
     33 C         139.4668  139.0488  159.9203 C.ar    1  UNL1        0.1398
     34 C         139.3526  140.5428  159.9898 C.ar    1  UNL1        0.0512
     35 C         138.7145  141.1916  161.1823 C.ar    1  UNL1        0.0493
     36 N         138.6003  142.6856  161.2517 N.am    1  UNL1       -0.2841
     37 H         138.9441  143.2404  160.5146 H       1  UNL1        0.1548
@<TRIPOS>BOND
     1    26    27    2
     2    27    28    1
     3    28    29    1
     4    29    30    1
     5    30    31   ar
     6    31    32   ar
     7    32    33   ar
     8    33    25    1
     9    25    24    1
    10    24    23    1
    11    23    22    1
    12    22    21    1
    13    21     1    1
    14     1     2    1
    15     2     3    1
    16     3     4    1
    17     4     5    1
    18     5     8    1
    19     8     9    1
    20     9    10    2
    21    10    11    1
    22    11    12    1
    23    11    13    1
    24    13    14    2
    25    14    15    1
    26    15    16    2
    27    15    17    1
    28    17    18    2
    29    18    19    1
    30     5     6    1
    31     6     7    1
    32    33    34   ar
    33    34    35   ar
    34    35    36    1
    35    36    27   am
    36    35    30   ar
    37     7     1    1
    38    19     8    2
    39    19    13    1
    40    12    20    1
    41    36    37    1
@<TRIPOS>MOLECULE
*****
 37 41 0 0 0
SMALL
GASTEIGER

@<TRIPOS>ATOM
      1 N         141.6560  139.0967  163.1228 N.3     1  UNL1       -0.2712
      2 C         142.6943  140.1723  162.9992 C.3     1  UNL1        0.0739
      3 C         143.3541  140.9647  164.0885 C.3     1  UNL1        0.0387
      4 C         143.1388  140.8773  165.5704 C.3     1  UNL1        0.0923
      5 N         142.2104  139.9759  166.3289 N.pl3   1  UNL1       -0.3060
      6 C         141.2680  138.9392  165.7931 C.3     1  UNL1        0.1081
      7 C         141.0213  138.5479  164.3661 C.3     1  UNL1        0.0938
      8 C         142.2265  140.1317  167.8208 C.2     1  UNL1        0.0486
      9 C         142.8663  139.0801  168.6779 C.2     1  UNL1        0.0127
     10 C         142.8824  139.2360  170.1697 C.2     1  UNL1        0.0096
     11 C         142.2587  140.4435  170.8044 C.3     1  UNL1        0.1700
     12 O         142.2747  140.5994  172.2961 O.3     1  UNL1       -0.3743
     13 C         141.6189  141.4952  169.9472 C.2     1  UNL1        0.0833
     14 N         140.9951  142.7027  170.5819 N.am    1  UNL1       -0.1770
     15 C         140.3553  143.7543  169.7248 C.2     1  UNL1        0.2689
     16 O         139.7316  144.9618  170.3595 O.2     1  UNL1       -0.2680
     17 C         140.3392  143.5985  168.2331 C.2     1  UNL1        0.0599
     18 C         140.9630  142.3909  167.5983 C.2     1  UNL1        0.0070
     19 C         141.6028  141.3393  168.4555 C.2     1  UNL1        0.0274
     20 H         141.5805  141.0582  172.7267 H       1  UNL1        0.2113
     21 C         141.1911  138.4896  161.8323 C.3     1  UNL1        0.0723
     22 C         139.7879  137.9739  161.7087 C.3     1  UNL1        0.0212
     23 C         138.8161  138.6562  160.7921 C.3     1  UNL1        0.0488
     24 C         137.5281  139.2001  161.3353 C.3     1  UNL1        0.2054
     25 O         137.2507  140.6730  161.2739 O.3     1  UNL1       -0.4754
     26 O         143.8176  144.7528  162.2645 O.2     1  UNL1       -0.2748
     27 C         142.4559  144.3462  162.7446 C.2     1  UNL1        0.2264
     28 C         141.9215  144.8930  164.0351 C.3     1  UNL1        0.0901
     29 C         140.5598  144.4865  164.5153 C.3     1  UNL1        0.0372
     30 C         139.7326  143.5331  163.7050 C.ar    1  UNL1       -0.0080
     31 C         138.3709  143.1266  164.1851 C.ar    1  UNL1        0.0001
     32 C         137.5436  142.1732  163.3748 C.ar    1  UNL1        0.0367
     33 C         138.0780  141.6263  162.0842 C.ar    1  UNL1        0.1398
     34 C         139.4397  142.0329  161.6041 C.ar    1  UNL1        0.0512
     35 C         140.2670  142.9863  162.4145 C.ar    1  UNL1        0.0493
     36 N         141.6286  143.3929  161.9343 N.am    1  UNL1       -0.2841
     37 H         141.9794  143.0340  161.0873 H       1  UNL1        0.1548
@<TRIPOS>BOND
     1    26    27    2
     2    27    28    1
     3    28    29    1
     4    29    30    1
     5    30    31   ar
     6    31    32   ar
     7    32    33   ar
     8    33    25    1
     9    25    24    1
    10    24    23    1
    11    23    22    1
    12    22    21    1
    13    21     1    1
    14     1     2    1
    15     2     3    1
    16     3     4    1
    17     4     5    1
    18     5     8    1
    19     8     9    1
    20     9    10    2
    21    10    11    1
    22    11    12    1
    23    11    13    1
    24    13    14    2
    25    14    15    1
    26    15    16    2
    27    15    17    1
    28    17    18    2
    29    18    19    1
    30     5     6    1
    31     6     7    1
    32    33    34   ar
    33    34    35   ar
    34    35    36    1
    35    36    27   am
    36    35    30   ar
    37     7     1    1
    38    19     8    2
    39    19    13    1
    40    12    20    1
    41    36    37    1
@<TRIPOS>MOLECULE
*****
 37 41 0 0 0
SMALL
GASTEIGER

@<TRIPOS>ATOM
      1 N         141.1943  144.1368  162.5578 N.3     1  UNL1       -0.2712
      2 C         140.0212  144.5841  163.3788 C.3     1  UNL1        0.0739
      3 C         139.5914  144.1058  164.7339 C.3     1  UNL1        0.0387
      4 C         140.2284  143.0621  165.6028 C.3     1  UNL1        0.0923
      5 N         141.4525  142.2390  165.3312 N.pl3   1  UNL1       -0.3060
      6 C         142.3421  142.2562  164.1236 C.3     1  UNL1        0.1081
      7 C         142.2271  143.1008  162.8893 C.3     1  UNL1        0.0938
      8 C         141.8382  141.2705  166.4099 C.2     1  UNL1        0.0486
      9 C         142.5840  140.0169  166.0606 C.2     1  UNL1        0.0127
     10 C         142.9696  139.0484  167.1393 C.2     1  UNL1        0.0096
     11 C         142.6094  139.3337  168.5672 C.3     1  UNL1        0.1700
     12 O         142.9950  138.3654  169.6458 O.3     1  UNL1       -0.3743
     13 C         141.8636  140.5875  168.9164 C.2     1  UNL1        0.0833
     14 N         141.5034  140.8727  170.3443 N.am    1  UNL1       -0.1770
     15 C         140.7576  142.1264  170.6935 C.2     1  UNL1        0.2689
     16 O         140.3974  142.4117  172.1214 O.2     1  UNL1       -0.2680
     17 C         140.3719  143.0948  169.6149 C.2     1  UNL1        0.0599
     18 C         140.7321  142.8096  168.1870 C.2     1  UNL1        0.0070
     19 C         141.4780  141.5558  167.8377 C.2     1  UNL1        0.0274
     20 H         142.4611  138.2794  170.4110 H       1  UNL1        0.2113
     21 C         141.3558  144.8153  161.2299 C.3     1  UNL1        0.0723
     22 C         141.3474  144.0048  159.9676 C.3     1  UNL1        0.0212
     23 C         140.1588  144.0519  159.0539 C.3     1  UNL1        0.0488
     24 C         139.0685  143.0306  159.1885 C.3     1  UNL1        0.2054
     25 O         138.3816  142.8361  160.5079 O.3     1  UNL1       -0.4754
     26 O         137.3803  138.6999  167.0377 O.2     1  UNL1       -0.2748
     27 C         138.1377  138.9631  165.7700 C.2     1  UNL1        0.2264
     28 C         139.3187  138.1108  165.4112 C.3     1  UNL1        0.0901
     29 C         140.0761  138.3740  164.1435 C.3     1  UNL1        0.0372
     30 C         139.6525  139.4895  163.2346 C.ar    1  UNL1       -0.0080
     31 C         140.4099  139.7527  161.9669 C.ar    1  UNL1        0.0001
     32 C         139.9863  140.8683  161.0580 C.ar    1  UNL1        0.0367
     33 C         138.8052  141.7206  161.4168 C.ar    1  UNL1        0.1398
     34 C         138.0478  141.4574  162.6845 C.ar    1  UNL1        0.0512
     35 C         138.4715  140.3418  163.5934 C.ar    1  UNL1        0.0493
     36 N         137.7141  140.0786  164.8611 N.am    1  UNL1       -0.2841
     37 H         136.9389  140.6380  165.0966 H       1  UNL1        0.1548
@<TRIPOS>BOND
     1    26    27    2
     2    27    28    1
     3    28    29    1
     4    29    30    1
     5    30    31   ar
     6    31    32   ar
     7    32    33   ar
     8    33    25    1
     9    25    24    1
    10    24    23    1
    11    23    22    1
    12    22    21    1
    13    21     1    1
    14     1     2    1
    15     2     3    1
    16     3     4    1
    17     4     5    1
    18     5     8    1
    19     8     9    1
    20     9    10    2
    21    10    11    1
    22    11    12    1
    23    11    13    1
    24    13    14    2
    25    14    15    1
    26    15    16    2
    27    15    17    1
    28    17    18    2
    29    18    19    1
    30     5     6    1
    31     6     7    1
    32    33    34   ar
    33    34    35   ar
    34    35    36    1
    35    36    27   am
    36    35    30   ar
    37     7     1    1
    38    19     8    2
    39    19    13    1
    40    12    20    1
    41    36    37    1
@<TRIPOS>MOLECULE
*****
 37 41 0 0 0
SMALL
GASTEIGER

@<TRIPOS>ATOM
      1 N         142.9850  139.3853  162.0187 N.3     1  UNL1       -0.2712
      2 C         142.6607  140.8335  161.8003 C.3     1  UNL1        0.0739
      3 C         141.9531  141.7826  162.7215 C.3     1  UNL1        0.0387
      4 C         141.3952  141.5180  164.0885 C.3     1  UNL1        0.0923
      5 N         141.4070  140.2390  164.8720 N.pl3   1  UNL1       -0.3060
      6 C         141.9797  138.9086  164.4821 C.3     1  UNL1        0.1081
      7 C         142.6820  138.5287  163.2122 C.3     1  UNL1        0.0938
      8 C         140.7607  140.2982  166.2244 C.2     1  UNL1        0.0486
      9 C         139.4604  139.5906  166.4658 C.2     1  UNL1        0.0127
     10 C         138.8141  139.6498  167.8181 C.2     1  UNL1        0.0096
     11 C         139.4682  140.4166  168.9290 C.3     1  UNL1        0.1700
     12 O         138.8219  140.4759  170.2814 O.3     1  UNL1       -0.3743
     13 C         140.7686  141.1243  168.6876 C.2     1  UNL1        0.0833
     14 N         141.4226  141.8912  169.7985 N.am    1  UNL1       -0.1770
     15 C         142.7229  142.5988  169.5571 C.2     1  UNL1        0.2689
     16 O         143.3770  143.3656  170.6680 O.2     1  UNL1       -0.2680
     17 C         143.3693  142.5396  168.2048 C.2     1  UNL1        0.0599
     18 C         142.7152  141.7727  167.0938 C.2     1  UNL1        0.0070
     19 C         141.4148  141.0651  167.3353 C.2     1  UNL1        0.0274
     20 H         138.9417  141.2294  170.8253 H       1  UNL1        0.2113
     21 C         143.7080  138.7037  160.8951 C.3     1  UNL1        0.0723
     22 C         143.0362  137.6023  160.1297 C.3     1  UNL1        0.0212
     23 C         142.5469  137.8496  158.7335 C.3     1  UNL1        0.0488
     24 C         141.3013  138.6540  158.5069 C.3     1  UNL1        0.2054
     25 O         139.9984  138.2011  159.0964 O.3     1  UNL1       -0.4754
     26 O         137.7536  144.8236  162.5392 O.2     1  UNL1       -0.2748
     27 C         137.9246  143.3339  162.5755 C.2     1  UNL1        0.2264
     28 C         137.5183  142.5618  163.7957 C.3     1  UNL1        0.0901
     29 C         137.6893  141.0720  163.8320 C.3     1  UNL1        0.0372
     30 C         138.2666  140.3543  162.6481 C.ar    1  UNL1       -0.0080
     31 C         138.4376  138.8645  162.6844 C.ar    1  UNL1        0.0001
     32 C         139.0148  138.1468  161.5005 C.ar    1  UNL1        0.0367
     33 C         139.4211  138.9189  160.2803 C.ar    1  UNL1        0.1398
     34 C         139.2501  140.4086  160.2440 C.ar    1  UNL1        0.0512
     35 C         138.6728  141.1264  161.4279 C.ar    1  UNL1        0.0493
     36 N         138.5018  142.6161  161.3916 N.am    1  UNL1       -0.2841
     37 H         138.7685  143.1229  160.5908 H       1  UNL1        0.1548
@<TRIPOS>BOND
     1    26    27    2
     2    27    28    1
     3    28    29    1
     4    29    30    1
     5    30    31   ar
     6    31    32   ar
     7    32    33   ar
     8    33    25    1
     9    25    24    1
    10    24    23    1
    11    23    22    1
    12    22    21    1
    13    21     1    1
    14     1     2    1
    15     2     3    1
    16     3     4    1
    17     4     5    1
    18     5     8    1
    19     8     9    1
    20     9    10    2
    21    10    11    1
    22    11    12    1
    23    11    13    1
    24    13    14    2
    25    14    15    1
    26    15    16    2
    27    15    17    1
    28    17    18    2
    29    18    19    1
    30     5     6    1
    31     6     7    1
    32    33    34   ar
    33    34    35   ar
    34    35    36    1
    35    36    27   am
    36    35    30   ar
    37     7     1    1
    38    19     8    2
    39    19    13    1
    40    12    20    1
    41    36    37    1
@<TRIPOS>MOLECULE
*****
 37 41 0 0 0
SMALL
GASTEIGER

@<TRIPOS>ATOM
      1 N         140.8030  144.8014  162.8170 N.3     1  UNL1       -0.2712
      2 C         142.1340  144.1139  162.7399 C.3     1  UNL1        0.0739
      3 C         142.7534  143.1628  163.7205 C.3     1  UNL1        0.0387
      4 C         142.1950  142.6642  165.0203 C.3     1  UNL1        0.0923
      5 N         140.8792  142.9937  165.6606 N.pl3   1  UNL1       -0.3060
      6 C         139.7968  143.9030  165.1593 C.3     1  UNL1        0.1081
      7 C         139.7629  144.7076  163.8938 C.3     1  UNL1        0.0938
      8 C         140.6102  142.3253  166.9763 C.2     1  UNL1        0.0486
      9 C         141.2403  142.8560  168.2298 C.2     1  UNL1        0.0127
     10 C         140.9714  142.1877  169.5455 C.2     1  UNL1        0.0096
     11 C         140.0723  140.9886  169.6077 C.3     1  UNL1        0.1700
     12 O         139.8032  140.3203  170.9233 O.3     1  UNL1       -0.3743
     13 C         139.4421  140.4579  168.3541 C.2     1  UNL1        0.0833
     14 N         138.5430  139.2589  168.4163 N.am    1  UNL1       -0.1770
     15 C         137.9129  138.7282  167.1628 C.2     1  UNL1        0.2689
     16 O         137.0138  137.5291  167.2250 O.2     1  UNL1       -0.2680
     17 C         138.1818  139.3964  165.8471 C.2     1  UNL1        0.0599
     18 C         139.0810  140.5955  165.7850 C.2     1  UNL1        0.0070
     19 C         139.7111  141.1263  167.0385 C.2     1  UNL1        0.0274
     20 H         139.6312  139.3997  170.9546 H       1  UNL1        0.2113
     21 C         140.4679  145.7019  161.6652 C.3     1  UNL1        0.0723
     22 C         140.5947  145.1982  160.2579 C.3     1  UNL1        0.0212
     23 C         139.9294  143.9148  159.8578 C.3     1  UNL1        0.0488
     24 C         140.7501  142.7812  159.3178 C.3     1  UNL1        0.2054
     25 O         140.1210  141.4370  159.1002 O.3     1  UNL1       -0.4754
     26 O         143.3869  138.4579  165.5196 O.2     1  UNL1       -0.2748
     27 C         142.3047  138.4327  164.4812 C.2     1  UNL1        0.2264
     28 C         141.2290  137.3892  164.5442 C.3     1  UNL1        0.0901
     29 C         140.1468  137.3640  163.5058 C.3     1  UNL1        0.0372
     30 C         140.1403  138.3822  162.4044 C.ar    1  UNL1       -0.0080
     31 C         139.0582  138.3570  161.3660 C.ar    1  UNL1        0.0001
     32 C         139.0517  139.3752  160.2646 C.ar    1  UNL1        0.0367
     33 C         140.1275  140.4187  160.2016 C.ar    1  UNL1        0.1398
     34 C         141.2096  140.4440  161.2400 C.ar    1  UNL1        0.0512
     35 C         141.2161  139.4257  162.3414 C.ar    1  UNL1        0.0493
     36 N         142.2982  139.4509  163.3798 N.am    1  UNL1       -0.2841
     37 H         143.0043  140.1358  163.3384 H       1  UNL1        0.1548
@<TRIPOS>BOND
     1    26    27    2
     2    27    28    1
     3    28    29    1
     4    29    30    1
     5    30    31   ar
     6    31    32   ar
     7    32    33   ar
     8    33    25    1
     9    25    24    1
    10    24    23    1
    11    23    22    1
    12    22    21    1
    13    21     1    1
    14     1     2    1
    15     2     3    1
    16     3     4    1
    17     4     5    1
    18     5     8    1
    19     8     9    1
    20     9    10    2
    21    10    11    1
    22    11    12    1
    23    11    13    1
    24    13    14    2
    25    14    15    1
    26    15    16    2
    27    15    17    1
    28    17    18    2
    29    18    19    1
    30     5     6    1
    31     6     7    1
    32    33    34   ar
    33    34    35   ar
    34    35    36    1
    35    36    27   am
    36    35    30   ar
    37     7     1    1
    38    19     8    2
    39    19    13    1
    40    12    20    1
    41    36    37    1
@<TRIPOS>MOLECULE
*****
 37 41 0 0 0
SMALL
GASTEIGER

@<TRIPOS>ATOM
      1 N         142.7825  140.5997  162.0776 N.3     1  UNL1       -0.2712
      2 C         143.5967  139.4566  162.6071 C.3     1  UNL1        0.0739
      3 C         143.5184  138.7965  163.9518 C.3     1  UNL1        0.0387
      4 C         142.6066  139.1164  165.0990 C.3     1  UNL1        0.0923
      5 N         141.5479  140.1755  165.1850 N.pl3   1  UNL1       -0.3060
      6 C         141.1394  141.1762  164.1450 C.3     1  UNL1        0.1081
      7 C         141.6889  141.3650  162.7620 C.3     1  UNL1        0.0938
      8 C         140.7984  140.2428  166.4826 C.2     1  UNL1        0.0486
      9 C         139.4892  139.5258  166.6306 C.2     1  UNL1        0.0127
     10 C         138.7398  139.5931  167.9283 C.2     1  UNL1        0.0096
     11 C         139.2996  140.3773  169.0779 C.3     1  UNL1        0.1700
     12 O         138.5502  140.4446  170.3755 O.3     1  UNL1       -0.3743
     13 C         140.6088  141.0943  168.9298 C.2     1  UNL1        0.0833
     14 N         141.1686  141.8786  170.0795 N.am    1  UNL1       -0.1770
     15 C         142.4778  142.5955  169.9314 C.2     1  UNL1        0.2689
     16 O         143.0376  143.3797  171.0810 O.2     1  UNL1       -0.2680
     17 C         143.2273  142.5283  168.6339 C.2     1  UNL1        0.0599
     18 C         142.6674  141.7440  167.4842 C.2     1  UNL1        0.0070
     19 C         141.3582  141.0270  167.6322 C.2     1  UNL1        0.0274
     20 H         138.6213  141.2048  170.9187 H       1  UNL1        0.2113
     21 C         143.1044  141.0351  160.6788 C.3     1  UNL1        0.0723
     22 C         143.9216  142.2716  160.4474 C.3     1  UNL1        0.0212
     23 C         144.0286  142.8527  159.0688 C.3     1  UNL1        0.0488
     24 C         142.8926  143.6510  158.5011 C.3     1  UNL1        0.2054
     25 O         142.2143  144.6923  159.3411 O.3     1  UNL1       -0.4754
     26 O         138.4641  145.4547  166.1312 O.2     1  UNL1       -0.2748
     27 C         138.5904  144.8115  164.7820 C.2     1  UNL1        0.2264
     28 C         137.5929  143.7792  164.3470 C.3     1  UNL1        0.0901
     29 C         137.7192  143.1359  162.9978 C.3     1  UNL1        0.0372
     30 C         138.8429  143.5250  162.0837 C.ar    1  UNL1       -0.0080
     31 C         138.9692  142.8818  160.7345 C.ar    1  UNL1        0.0001
     32 C         140.0930  143.2708  159.8203 C.ar    1  UNL1        0.0367
     33 C         141.0905  144.3032  160.2553 C.ar    1  UNL1        0.1398
     34 C         140.9643  144.9465  161.6045 C.ar    1  UNL1        0.0512
     35 C         139.8404  144.5573  162.5187 C.ar    1  UNL1        0.0493
     36 N         139.7142  145.2006  163.8679 N.am    1  UNL1       -0.2841
     37 H         140.3689  145.8781  164.1534 H       1  UNL1        0.1548
@<TRIPOS>BOND
     1    26    27    2
     2    27    28    1
     3    28    29    1
     4    29    30    1
     5    30    31   ar
     6    31    32   ar
     7    32    33   ar
     8    33    25    1
     9    25    24    1
    10    24    23    1
    11    23    22    1
    12    22    21    1
    13    21     1    1
    14     1     2    1
    15     2     3    1
    16     3     4    1
    17     4     5    1
    18     5     8    1
    19     8     9    1
    20     9    10    2
    21    10    11    1
    22    11    12    1
    23    11    13    1
    24    13    14    2
    25    14    15    1
    26    15    16    2
    27    15    17    1
    28    17    18    2
    29    18    19    1
    30     5     6    1
    31     6     7    1
    32    33    34   ar
    33    34    35   ar
    34    35    36    1
    35    36    27   am
    36    35    30   ar
    37     7     1    1
    38    19     8    2
    39    19    13    1
    40    12    20    1
    41    36    37    1
