@<TRIPOS>MOLECULE
*****
 38 43 0 0 0
SMALL
GASTEIGER

@<TRIPOS>ATOM
      1 C         138.6065  139.8894  160.7797 C.2     1  UNL1        0.2495
      2 O         137.4261  140.6580  161.2953 O.2     1  UNL1       -0.2698
      3 N         139.5202  139.1854  161.7387 N.am    1  UNL1       -0.2804
      4 H         140.2949  138.6809  161.4002 H       1  UNL1        0.1552
      5 C         139.6735  139.6309  154.8810 C.3     1  UNL1        0.0317
      6 C         139.4068  139.6955  156.3556 C.ar    1  UNL1       -0.0142
      7 C         138.7208  140.8937  156.9420 C.ar    1  UNL1       -0.0035
      8 C         138.4540  140.9584  158.4165 C.ar    1  UNL1        0.0042
      9 C         138.8733  139.8248  159.3050 C.ar    1  UNL1        0.0543
     10 C         139.5593  138.6266  158.7187 C.ar    1  UNL1        0.0124
     11 C         139.8260  138.5620  157.2440 C.ar    1  UNL1        0.0382
     12 C         140.5121  137.3638  156.6577 C.1     1  UNL1       -0.0585
     13 C         141.1981  136.1656  156.0715 C.1     1  UNL1       -0.0388
     14 C         141.8841  134.9674  155.4852 C.ar    1  UNL1        0.1451
     15 C         141.6758  134.4201  154.1042 C.ar    1  UNL1        0.1281
     16 N         142.5618  133.2206  153.9425 N.ar    1  UNL1       -0.2228
     17 C         143.3178  133.0267  155.2235 C.ar    1  UNL1        0.1646
     18 C         144.3335  132.0065  155.6449 C.ar    1  UNL1        0.0405
     19 C         144.9303  132.0659  157.0197 C.ar    1  UNL1        0.0256
     20 C         144.5114  133.1455  157.9732 C.ar    1  UNL1        0.1207
     21 N         143.4958  134.1657  157.5518 N.ar    1  UNL1       -0.1616
     22 N         142.8990  134.1062  156.1769 N.ar    1  UNL1       -0.2030
     23 C         139.2534  139.2500  163.2133 C.ar    1  UNL1        0.0514
     24 C         139.4119  140.5480  163.9480 C.ar    1  UNL1        0.0145
     25 C         139.1451  140.6126  165.4227 C.ar    1  UNL1       -0.0008
     26 C         138.7199  139.3791  166.1627 C.ar    1  UNL1        0.0045
     27 C         138.5615  138.0810  165.4281 C.ar    1  UNL1        0.0562
     28 CL        138.1363  136.8474  166.1680 Cl      1  UNL1       -0.0825
     29 C         138.8282  138.0164  163.9533 C.ar    1  UNL1        0.0258
     30 C         138.4532  139.4437  167.6374 C.3     1  UNL1        0.1003
     31 N         139.3388  140.2677  168.5243 N.3     1  UNL1       -0.2633
     32 C         140.6063  140.9551  168.1111 C.3     1  UNL1        0.0987
     33 C         141.1633  141.6612  169.3116 C.2     1  UNL1        0.0177
     34 C         142.2909  142.5225  169.7981 C.2     1  UNL1        0.1165
     35 N         142.0645  142.8037  171.2540 N.2     1  UNL1       -0.1513
     36 N         140.7970  142.1163  171.6673 N.2     1  UNL1       -0.1708
     37 C         140.2401  141.4102  170.4668 C.3     1  UNL1        0.1621
     38 C         139.1124  140.5489  169.9802 C.3     1  UNL1        0.1034
@<TRIPOS>BOND
     1     5     6    1
     2     6     7   ar
     3     7     8   ar
     4     8     9   ar
     5     9     1    1
     6     1     2    2
     7     1     3   am
     8     3    23    1
     9    23    24   ar
    10    24    25   ar
    11    25    26   ar
    12    26    30    1
    13    30    31    1
    14    31    32    1
    15    32    33    1
    16    33    34    2
    17    34    35    1
    18    35    36    2
    19    36    37    1
    20    37    38    1
    21    26    27   ar
    22    27    28    1
    23    27    29   ar
    24     9    10   ar
    25    10    11   ar
    26    11    12    1
    27    12    13    3
    28    13    14    1
    29    14    15   ar
    30    15    16   ar
    31    16    17   ar
    32    17    18   ar
    33    18    19   ar
    34    19    20   ar
    35    20    21   ar
    36    21    22   ar
    37    11     6   ar
    38    22    14   ar
    39    29    23   ar
    40    22    17   ar
    41    38    31    1
    42    37    33    1
    43     3     4    1
@<TRIPOS>MOLECULE
*****
 38 43 0 0 0
SMALL
GASTEIGER

@<TRIPOS>ATOM
      1 C         141.6297  138.4277  161.1672 C.2     1  UNL1        0.2495
      2 O         141.0171  137.3054  161.9516 O.2     1  UNL1       -0.2698
      3 N         142.2780  139.5760  161.8821 N.am    1  UNL1       -0.2804
      4 H         142.6801  140.3125  161.3672 H       1  UNL1        0.1552
      5 C         141.4865  138.3234  155.1698 C.3     1  UNL1        0.0317
      6 C         141.5223  138.3495  156.6691 C.ar    1  UNL1       -0.0142
      7 C         142.6983  137.7744  157.4014 C.ar    1  UNL1       -0.0035
      8 C         142.7342  137.8005  158.9007 C.ar    1  UNL1        0.0042
      9 C         141.5939  138.4016  159.6679 C.ar    1  UNL1        0.0543
     10 C         140.4179  138.9767  158.9356 C.ar    1  UNL1        0.0124
     11 C         140.3821  138.9506  157.4362 C.ar    1  UNL1        0.0382
     12 C         139.2060  139.5257  156.7040 C.1     1  UNL1       -0.0585
     13 C         138.0299  140.1007  155.9717 C.1     1  UNL1       -0.0388
     14 C         136.8539  140.6757  155.2394 C.ar    1  UNL1        0.1451
     15 C         136.9085  141.4620  153.9631 C.ar    1  UNL1        0.1281
     16 N         135.5051  141.8377  153.5898 N.ar    1  UNL1       -0.2228
     17 C         134.5832  141.2836  154.6354 C.ar    1  UNL1        0.1646
     18 C         133.0923  141.3403  154.7908 C.ar    1  UNL1        0.0405
     19 C         132.4351  140.6788  155.9657 C.ar    1  UNL1        0.0256
     20 C         133.2688  139.9607  156.9852 C.ar    1  UNL1        0.1207
     21 N         134.7596  139.9040  156.8298 N.ar    1  UNL1       -0.1616
     22 N         135.4168  140.5655  155.6549 N.ar    1  UNL1       -0.2030
     23 C         142.3138  139.6020  163.3814 C.ar    1  UNL1        0.0514
     24 C         141.3609  140.4781  164.1393 C.ar    1  UNL1        0.0145
     25 C         141.3967  140.5042  165.6386 C.ar    1  UNL1       -0.0008
     26 C         142.3854  139.6541  166.3801 C.ar    1  UNL1        0.0045
     27 C         143.3384  138.7780  165.6223 C.ar    1  UNL1        0.0562
     28 CL        144.3272  137.9280  166.3637 Cl      1  UNL1       -0.0825
     29 C         143.3026  138.7520  164.1229 C.ar    1  UNL1        0.0258
     30 C         142.4212  139.6802  167.8795 C.3     1  UNL1        0.1003
     31 N         141.6769  140.7452  168.6290 N.3     1  UNL1       -0.2633
     32 C         142.0250  142.2037  168.6667 C.3     1  UNL1        0.0987
     33 C         141.0171  142.8985  169.5334 C.2     1  UNL1        0.0177
     34 C         140.6093  144.2294  170.0924 C.2     1  UNL1        0.1165
     35 N         139.3862  144.0228  170.9358 N.2     1  UNL1       -0.1513
     36 N         139.0381  142.5643  170.8982 N.2     1  UNL1       -0.1708
     37 C         140.0460  141.8695  170.0314 C.3     1  UNL1        0.1621
     38 C         140.4538  140.5386  169.4725 C.3     1  UNL1        0.1034
@<TRIPOS>BOND
     1     5     6    1
     2     6     7   ar
     3     7     8   ar
     4     8     9   ar
     5     9     1    1
     6     1     2    2
     7     1     3   am
     8     3    23    1
     9    23    24   ar
    10    24    25   ar
    11    25    26   ar
    12    26    30    1
    13    30    31    1
    14    31    32    1
    15    32    33    1
    16    33    34    2
    17    34    35    1
    18    35    36    2
    19    36    37    1
    20    37    38    1
    21    26    27   ar
    22    27    28    1
    23    27    29   ar
    24     9    10   ar
    25    10    11   ar
    26    11    12    1
    27    12    13    3
    28    13    14    1
    29    14    15   ar
    30    15    16   ar
    31    16    17   ar
    32    17    18   ar
    33    18    19   ar
    34    19    20   ar
    35    20    21   ar
    36    21    22   ar
    37    11     6   ar
    38    22    14   ar
    39    29    23   ar
    40    22    17   ar
    41    38    31    1
    42    37    33    1
    43     3     4    1
@<TRIPOS>MOLECULE
*****
 38 43 0 0 0
SMALL
GASTEIGER

@<TRIPOS>ATOM
      1 C         142.8941  139.6789  160.6279 C.2     1  UNL1        0.2495
      2 O         144.3518  139.6632  160.9811 O.2     1  UNL1       -0.2698
      3 N         141.8993  140.2816  161.5751 N.am    1  UNL1       -0.2804
      4 H         140.9425  140.2919  161.3433 H       1  UNL1        0.1552
      5 C         141.0422  137.3312  155.4260 C.3     1  UNL1        0.0317
      6 C         141.5052  137.9181  156.7265 C.ar    1  UNL1       -0.0142
      7 C         141.0236  139.2737  157.1512 C.ar    1  UNL1       -0.0035
      8 C         141.4865  139.8606  158.4516 C.ar    1  UNL1        0.0042
      9 C         142.4311  139.0920  159.3274 C.ar    1  UNL1        0.0543
     10 C         142.9127  137.7364  158.9027 C.ar    1  UNL1        0.0124
     11 C         142.4497  137.1495  157.6023 C.ar    1  UNL1        0.0382
     12 C         142.9314  135.7939  157.1775 C.1     1  UNL1       -0.0585
     13 C         143.4130  134.4382  156.7529 C.1     1  UNL1       -0.0388
     14 C         143.8946  133.0826  156.3281 C.ar    1  UNL1        0.1451
     15 C         144.7960  132.1800  157.1173 C.ar    1  UNL1        0.1281
     16 N         145.0178  130.9312  156.3165 N.ar    1  UNL1       -0.2228
     17 C         144.2535  131.0620  155.0325 C.ar    1  UNL1        0.1646
     18 C         144.1001  130.1421  153.8576 C.ar    1  UNL1        0.0405
     19 C         143.2524  130.5520  152.6900 C.ar    1  UNL1        0.0256
     20 C         142.5582  131.8816  152.6971 C.ar    1  UNL1        0.1207
     21 N         142.7117  132.8015  153.8720 N.ar    1  UNL1       -0.1616
     22 N         143.5594  132.3917  155.0396 N.ar    1  UNL1       -0.2030
     23 C         142.3622  140.8685  162.8755 C.ar    1  UNL1        0.0514
     24 C         142.6176  139.9750  164.0530 C.ar    1  UNL1        0.0145
     25 C         143.0806  140.5619  165.3535 C.ar    1  UNL1       -0.0008
     26 C         143.2882  142.0424  165.4765 C.ar    1  UNL1        0.0045
     27 C         143.0328  142.9360  164.2991 C.ar    1  UNL1        0.0562
     28 CL        143.2404  144.4164  164.4219 Cl      1  UNL1       -0.0825
     29 C         142.5699  142.3489  162.9986 C.ar    1  UNL1        0.0258
     30 C         143.7511  142.6293  166.7769 C.3     1  UNL1        0.1003
     31 N         142.8928  142.5103  168.0013 N.3     1  UNL1       -0.2633
     32 C         141.3931  142.5148  168.0304 C.3     1  UNL1        0.0987
     33 C         140.9568  142.3732  169.4585 C.2     1  UNL1        0.0177
     34 C         139.7603  142.2884  170.3592 C.2     1  UNL1        0.1165
     35 N         140.2509  142.1441  171.7693 N.2     1  UNL1       -0.1513
     36 N         141.7506  142.1397  171.7402 N.2     1  UNL1       -0.1708
     37 C         142.1868  142.2813  170.3120 C.3     1  UNL1        0.1621
     38 C         143.3833  142.3660  169.4114 C.3     1  UNL1        0.1034
@<TRIPOS>BOND
     1     5     6    1
     2     6     7   ar
     3     7     8   ar
     4     8     9   ar
     5     9     1    1
     6     1     2    2
     7     1     3   am
     8     3    23    1
     9    23    24   ar
    10    24    25   ar
    11    25    26   ar
    12    26    30    1
    13    30    31    1
    14    31    32    1
    15    32    33    1
    16    33    34    2
    17    34    35    1
    18    35    36    2
    19    36    37    1
    20    37    38    1
    21    26    27   ar
    22    27    28    1
    23    27    29   ar
    24     9    10   ar
    25    10    11   ar
    26    11    12    1
    27    12    13    3
    28    13    14    1
    29    14    15   ar
    30    15    16   ar
    31    16    17   ar
    32    17    18   ar
    33    18    19   ar
    34    19    20   ar
    35    20    21   ar
    36    21    22   ar
    37    11     6   ar
    38    22    14   ar
    39    29    23   ar
    40    22    17   ar
    41    38    31    1
    42    37    33    1
    43     3     4    1
@<TRIPOS>MOLECULE
*****
 38 43 0 0 0
SMALL
GASTEIGER

@<TRIPOS>ATOM
      1 C         141.7519  140.2005  160.3031 C.2     1  UNL1        0.2495
      2 O         143.2399  140.3783  160.3695 O.2     1  UNL1       -0.2698
      3 N         140.9056  140.5066  161.5031 N.am    1  UNL1       -0.2804
      4 H         139.9291  140.3899  161.4594 H       1  UNL1        0.1552
      5 C         139.1854  138.2645  155.2370 C.3     1  UNL1        0.0317
      6 C         139.8270  138.7485  156.5035 C.ar    1  UNL1       -0.0142
      7 C         139.3591  140.0226  157.1419 C.ar    1  UNL1       -0.0035
      8 C         140.0007  140.5067  158.4084 C.ar    1  UNL1        0.0042
      9 C         141.1103  139.7165  159.0366 C.ar    1  UNL1        0.0543
     10 C         141.5782  138.4424  158.3981 C.ar    1  UNL1        0.0124
     11 C         140.9366  137.9584  157.1316 C.ar    1  UNL1        0.0382
     12 C         141.4045  136.6842  156.4932 C.1     1  UNL1       -0.0585
     13 C         141.8724  135.4100  155.8548 C.1     1  UNL1       -0.0388
     14 C         142.3403  134.1358  155.2164 C.ar    1  UNL1        0.1451
     15 C         141.9492  133.6351  153.8576 C.ar    1  UNL1        0.1281
     16 N         142.6487  132.3285  153.6262 N.ar    1  UNL1       -0.2228
     17 C         143.4721  132.0218  154.8419 C.ar    1  UNL1        0.1646
     18 C         144.3708  130.8697  155.1809 C.ar    1  UNL1        0.0405
     19 C         145.0789  130.8346  156.5027 C.ar    1  UNL1        0.0256
     20 C         144.8884  131.9516  157.4855 C.ar    1  UNL1        0.1207
     21 N         143.9897  133.1037  157.1465 N.ar    1  UNL1       -0.1616
     22 N         143.2815  133.1388  155.8247 N.ar    1  UNL1       -0.2030
     23 C         141.5473  140.9906  162.7696 C.ar    1  UNL1        0.0514
     24 C         141.8346  140.0254  163.8812 C.ar    1  UNL1        0.0145
     25 C         142.4762  140.5094  165.1477 C.ar    1  UNL1       -0.0008
     26 C         142.8306  141.9586  165.3026 C.ar    1  UNL1        0.0045
     27 C         142.5433  142.9240  164.1911 C.ar    1  UNL1        0.0562
     28 CL        142.8976  144.3732  164.3459 Cl      1  UNL1       -0.0825
     29 C         141.9016  142.4399  162.9245 C.ar    1  UNL1        0.0258
     30 C         143.4722  142.4426  166.5691 C.3     1  UNL1        0.1003
     31 N         142.7073  142.4060  167.8589 N.3     1  UNL1       -0.2633
     32 C         141.2203  142.5378  168.0061 C.3     1  UNL1        0.0987
     33 C         140.8890  142.4445  169.4660 C.2     1  UNL1        0.0177
     34 C         139.7653  142.4682  170.4593 C.2     1  UNL1        0.1165
     35 N         140.3529  142.2934  171.8283 N.2     1  UNL1       -0.1513
     36 N         141.8398  142.1616  171.6811 N.2     1  UNL1       -0.1708
     37 C         142.1711  142.2550  170.2212 C.3     1  UNL1        0.1621
     38 C         143.2949  142.2312  169.2279 C.3     1  UNL1        0.1034
@<TRIPOS>BOND
     1     5     6    1
     2     6     7   ar
     3     7     8   ar
     4     8     9   ar
     5     9     1    1
     6     1     2    2
     7     1     3   am
     8     3    23    1
     9    23    24   ar
    10    24    25   ar
    11    25    26   ar
    12    26    30    1
    13    30    31    1
    14    31    32    1
    15    32    33    1
    16    33    34    2
    17    34    35    1
    18    35    36    2
    19    36    37    1
    20    37    38    1
    21    26    27   ar
    22    27    28    1
    23    27    29   ar
    24     9    10   ar
    25    10    11   ar
    26    11    12    1
    27    12    13    3
    28    13    14    1
    29    14    15   ar
    30    15    16   ar
    31    16    17   ar
    32    17    18   ar
    33    18    19   ar
    34    19    20   ar
    35    20    21   ar
    36    21    22   ar
    37    11     6   ar
    38    22    14   ar
    39    29    23   ar
    40    22    17   ar
    41    38    31    1
    42    37    33    1
    43     3     4    1
@<TRIPOS>MOLECULE
*****
 38 43 0 0 0
SMALL
GASTEIGER

@<TRIPOS>ATOM
      1 C         142.0611  139.4604  161.0790 C.2     1  UNL1        0.2495
      2 O         143.0135  139.7087  162.2110 O.2     1  UNL1       -0.2698
      3 N         140.6068  139.2244  161.3604 N.am    1  UNL1       -0.2804
      4 H         139.9817  139.0615  160.6174 H       1  UNL1        0.1552
      5 C         144.0690  139.4118  155.4251 C.3     1  UNL1        0.0317
      6 C         143.5670  139.4239  156.8386 C.ar    1  UNL1       -0.0142
      7 C         143.6736  140.6734  157.6616 C.ar    1  UNL1       -0.0035
      8 C         143.1717  140.6857  159.0750 C.ar    1  UNL1        0.0042
      9 C         142.5631  139.4483  159.6655 C.ar    1  UNL1        0.0543
     10 C         142.4565  138.1988  158.8425 C.ar    1  UNL1        0.0124
     11 C         142.9585  138.1866  157.4291 C.ar    1  UNL1        0.0382
     12 C         142.8519  136.9371  156.6060 C.1     1  UNL1       -0.0585
     13 C         142.7454  135.6877  155.7829 C.1     1  UNL1       -0.0388
     14 C         142.6389  134.4381  154.9598 C.ar    1  UNL1        0.1451
     15 C         141.7584  134.2445  153.7610 C.ar    1  UNL1        0.1281
     16 N         141.9695  132.8496  153.2514 N.ar    1  UNL1       -0.2228
     17 C         142.9804  132.1811  154.1353 C.ar    1  UNL1        0.1646
     18 C         143.5776  130.8053  154.1151 C.ar    1  UNL1        0.0405
     19 C         144.5885  130.4113  155.1509 C.ar    1  UNL1        0.0256
     20 C         145.0022  131.3932  156.2068 C.ar    1  UNL1        0.1207
     21 N         144.4050  132.7690  156.2269 N.ar    1  UNL1       -0.1616
     22 N         143.3941  133.1629  155.1912 N.ar    1  UNL1       -0.2030
     23 C         140.1048  139.2365  162.7739 C.ar    1  UNL1        0.0514
     24 C         140.2842  138.0279  163.6439 C.ar    1  UNL1        0.0145
     25 C         139.7822  138.0401  165.0574 C.ar    1  UNL1       -0.0008
     26 C         139.1008  139.2609  165.6008 C.ar    1  UNL1        0.0045
     27 C         138.9214  140.4695  164.7308 C.ar    1  UNL1        0.0562
     28 CL        138.2400  141.6903  165.2741 Cl      1  UNL1       -0.0825
     29 C         139.4234  140.4573  163.3173 C.ar    1  UNL1        0.0258
     30 C         138.5988  139.2730  167.0143 C.3     1  UNL1        0.1003
     31 N         139.3795  139.9814  168.0814 N.3     1  UNL1       -0.2633
     32 C         140.6986  140.6716  167.8974 C.3     1  UNL1        0.0987
     33 C         141.1125  141.2407  169.2221 C.2     1  UNL1        0.0177
     34 C         142.1836  142.0190  169.9271 C.2     1  UNL1        0.1165
     35 N         141.7824  142.1616  171.3654 N.2     1  UNL1       -0.1513
     36 N         140.4634  141.4714  171.5493 N.2     1  UNL1       -0.1708
     37 C         140.0494  140.9023  170.2247 C.3     1  UNL1        0.1621
     38 C         138.9783  140.1240  169.5196 C.3     1  UNL1        0.1034
@<TRIPOS>BOND
     1     5     6    1
     2     6     7   ar
     3     7     8   ar
     4     8     9   ar
     5     9     1    1
     6     1     2    2
     7     1     3   am
     8     3    23    1
     9    23    24   ar
    10    24    25   ar
    11    25    26   ar
    12    26    30    1
    13    30    31    1
    14    31    32    1
    15    32    33    1
    16    33    34    2
    17    34    35    1
    18    35    36    2
    19    36    37    1
    20    37    38    1
    21    26    27   ar
    22    27    28    1
    23    27    29   ar
    24     9    10   ar
    25    10    11   ar
    26    11    12    1
    27    12    13    3
    28    13    14    1
    29    14    15   ar
    30    15    16   ar
    31    16    17   ar
    32    17    18   ar
    33    18    19   ar
    34    19    20   ar
    35    20    21   ar
    36    21    22   ar
    37    11     6   ar
    38    22    14   ar
    39    29    23   ar
    40    22    17   ar
    41    38    31    1
    42    37    33    1
    43     3     4    1
@<TRIPOS>MOLECULE
*****
 38 43 0 0 0
SMALL
GASTEIGER

@<TRIPOS>ATOM
      1 C         140.8238  139.6500  160.7764 C.2     1  UNL1        0.2495
      2 O         141.3496  140.9810  161.2257 O.2     1  UNL1       -0.2698
      3 N         140.8365  138.4820  161.7175 N.am    1  UNL1       -0.2804
      4 H         140.4914  137.6084  161.4226 H       1  UNL1        0.1552
      5 C         138.6694  138.9977  155.2146 C.3     1  UNL1        0.0317
      6 C         139.2080  139.1607  156.6051 C.ar    1  UNL1       -0.0142
      7 C         138.7665  140.3193  157.4493 C.ar    1  UNL1       -0.0035
      8 C         139.3050  140.4824  158.8397 C.ar    1  UNL1        0.0042
      9 C         140.2852  139.4869  159.3860 C.ar    1  UNL1        0.0543
     10 C         140.7267  138.3283  158.5417 C.ar    1  UNL1        0.0124
     11 C         140.1881  138.1653  157.1513 C.ar    1  UNL1        0.0382
     12 C         140.6296  137.0067  156.3071 C.1     1  UNL1       -0.0585
     13 C         141.0711  135.8480  155.4628 C.1     1  UNL1       -0.0388
     14 C         141.5126  134.6894  154.6186 C.ar    1  UNL1        0.1451
     15 C         141.4755  134.6255  153.1204 C.ar    1  UNL1        0.1281
     16 N         142.0087  133.2879  152.7002 N.ar    1  UNL1       -0.2228
     17 C         142.3753  132.5252  153.9387 C.ar    1  UNL1        0.1646
     18 C         142.9487  131.1538  154.1400 C.ar    1  UNL1        0.0405
     19 C         143.2155  130.6487  155.5269 C.ar    1  UNL1        0.0256
     20 C         142.9089  131.5149  156.7125 C.ar    1  UNL1        0.1207
     21 N         142.3355  132.8862  156.5112 N.ar    1  UNL1       -0.1616
     22 N         142.0687  133.3914  155.1243 N.ar    1  UNL1       -0.2030
     23 C         141.3751  138.6451  163.1080 C.ar    1  UNL1        0.0514
     24 C         140.4382  138.6518  164.2793 C.ar    1  UNL1        0.0145
     25 C         140.9768  138.8149  165.6697 C.ar    1  UNL1       -0.0008
     26 C         142.4524  138.9712  165.8889 C.ar    1  UNL1        0.0045
     27 C         143.3895  138.9645  164.7176 C.ar    1  UNL1        0.0562
     28 CL        144.8651  139.1208  164.9366 Cl      1  UNL1       -0.0825
     29 C         142.8508  138.8014  163.3271 C.ar    1  UNL1        0.0258
     30 C         142.9910  139.1343  167.2793 C.3     1  UNL1        0.1003
     31 N         142.2632  139.9944  168.2694 N.3     1  UNL1       -0.2633
     32 C         141.8008  141.4031  168.0414 C.3     1  UNL1        0.0987
     33 C         141.1219  141.8762  169.2924 C.2     1  UNL1        0.0177
     34 C         140.4165  143.0393  169.9247 C.2     1  UNL1        0.1165
     35 N         140.0232  142.6419  171.3166 N.2     1  UNL1       -0.1513
     36 N         140.4856  141.2333  171.5446 N.2     1  UNL1       -0.1708
     37 C         141.1646  140.7601  170.2936 C.3     1  UNL1        0.1621
     38 C         141.8700  139.5971  169.6613 C.3     1  UNL1        0.1034
@<TRIPOS>BOND
     1     5     6    1
     2     6     7   ar
     3     7     8   ar
     4     8     9   ar
     5     9     1    1
     6     1     2    2
     7     1     3   am
     8     3    23    1
     9    23    24   ar
    10    24    25   ar
    11    25    26   ar
    12    26    30    1
    13    30    31    1
    14    31    32    1
    15    32    33    1
    16    33    34    2
    17    34    35    1
    18    35    36    2
    19    36    37    1
    20    37    38    1
    21    26    27   ar
    22    27    28    1
    23    27    29   ar
    24     9    10   ar
    25    10    11   ar
    26    11    12    1
    27    12    13    3
    28    13    14    1
    29    14    15   ar
    30    15    16   ar
    31    16    17   ar
    32    17    18   ar
    33    18    19   ar
    34    19    20   ar
    35    20    21   ar
    36    21    22   ar
    37    11     6   ar
    38    22    14   ar
    39    29    23   ar
    40    22    17   ar
    41    38    31    1
    42    37    33    1
    43     3     4    1
@<TRIPOS>MOLECULE
*****
 38 43 0 0 0
SMALL
GASTEIGER

@<TRIPOS>ATOM
      1 C         139.5532  141.4038  161.1141 C.2     1  UNL1        0.2495
      2 O         139.1202  142.3344  162.2079 O.2     1  UNL1       -0.2698
      3 N         140.5464  140.3175  161.4028 N.am    1  UNL1       -0.2804
      4 H         140.8306  139.7067  160.6849 H       1  UNL1        0.1552
      5 C         137.3123  142.0270  155.5832 C.3     1  UNL1        0.0317
      6 C         137.8725  141.8712  156.9659 C.ar    1  UNL1       -0.0142
      7 C         137.5241  140.6636  157.7846 C.ar    1  UNL1       -0.0035
      8 C         138.0843  140.5078  159.1673 C.ar    1  UNL1        0.0042
      9 C         138.9930  141.5596  159.7314 C.ar    1  UNL1        0.0543
     10 C         139.3413  142.7672  158.9126 C.ar    1  UNL1        0.0124
     11 C         138.7811  142.9230  157.5299 C.ar    1  UNL1        0.0382
     12 C         139.1294  144.1306  156.7112 C.1     1  UNL1       -0.0585
     13 C         139.4778  145.3383  155.8925 C.1     1  UNL1       -0.0388
     14 C         139.8261  146.5459  155.0738 C.ar    1  UNL1        0.1451
     15 C         140.6579  146.5549  153.8256 C.ar    1  UNL1        0.1281
     16 N         140.7497  147.9711  153.3399 N.ar    1  UNL1       -0.2228
     17 C         139.9747  148.8374  154.2880 C.ar    1  UNL1        0.1646
     18 C         139.7150  150.3145  154.3140 C.ar    1  UNL1        0.0405
     19 C         138.8845  150.9108  155.4115 C.ar    1  UNL1        0.0256
     20 C         138.3137  150.0299  156.4832 C.ar    1  UNL1        0.1207
     21 N         138.5734  148.5529  156.4572 N.ar    1  UNL1       -0.1616
     22 N         139.4039  147.9566  155.3596 N.ar    1  UNL1       -0.2030
     23 C         141.1067  140.1617  162.7855 C.ar    1  UNL1        0.0514
     24 C         140.4947  139.1759  163.7361 C.ar    1  UNL1        0.0145
     25 C         141.0550  139.0201  165.1188 C.ar    1  UNL1       -0.0008
     26 C         142.2272  139.8502  165.5510 C.ar    1  UNL1        0.0045
     27 C         142.8392  140.8361  164.6005 C.ar    1  UNL1        0.0562
     28 CL        144.0114  141.6662  165.0325 Cl      1  UNL1       -0.0825
     29 C         142.2789  140.9918  163.2177 C.ar    1  UNL1        0.0258
     30 C         142.7875  139.6944  166.9337 C.3     1  UNL1        0.1003
     31 N         142.1158  140.3653  168.0950 N.3     1  UNL1       -0.2633
     32 C         141.2067  141.5561  168.0200 C.3     1  UNL1        0.0987
     33 C         140.7643  141.8900  169.4138 C.2     1  UNL1        0.0177
     34 C         139.9291  142.8323  170.2289 C.2     1  UNL1        0.1165
     35 N         140.0486  142.4303  171.6691 N.2     1  UNL1       -0.1513
     36 N         140.9577  141.2396  171.7441 N.2     1  UNL1       -0.1708
     37 C         141.4000  140.9057  170.3503 C.3     1  UNL1        0.1621
     38 C         142.2353  139.9633  169.5351 C.3     1  UNL1        0.1034
@<TRIPOS>BOND
     1     5     6    1
     2     6     7   ar
     3     7     8   ar
     4     8     9   ar
     5     9     1    1
     6     1     2    2
     7     1     3   am
     8     3    23    1
     9    23    24   ar
    10    24    25   ar
    11    25    26   ar
    12    26    30    1
    13    30    31    1
    14    31    32    1
    15    32    33    1
    16    33    34    2
    17    34    35    1
    18    35    36    2
    19    36    37    1
    20    37    38    1
    21    26    27   ar
    22    27    28    1
    23    27    29   ar
    24     9    10   ar
    25    10    11   ar
    26    11    12    1
    27    12    13    3
    28    13    14    1
    29    14    15   ar
    30    15    16   ar
    31    16    17   ar
    32    17    18   ar
    33    18    19   ar
    34    19    20   ar
    35    20    21   ar
    36    21    22   ar
    37    11     6   ar
    38    22    14   ar
    39    29    23   ar
    40    22    17   ar
    41    38    31    1
    42    37    33    1
    43     3     4    1
@<TRIPOS>MOLECULE
*****
 38 43 0 0 0
SMALL
GASTEIGER

@<TRIPOS>ATOM
      1 C         139.0047  141.2867  160.2976 C.2     1  UNL1        0.2495
      2 O         140.1331  142.0061  160.9754 O.2     1  UNL1       -0.2698
      3 N         138.1062  140.3848  161.0908 N.am    1  UNL1       -0.2804
      4 H         137.3656  139.9127  160.6459 H       1  UNL1        0.1552
      5 C         138.0856  142.0173  154.4136 C.3     1  UNL1        0.0317
      6 C         138.3154  141.8347  155.8846 C.ar    1  UNL1       -0.0142
      7 C         137.9856  140.5255  156.5384 C.ar    1  UNL1       -0.0035
      8 C         138.2154  140.3429  158.0093 C.ar    1  UNL1        0.0042
      9 C         138.7750  141.4694  158.8266 C.ar    1  UNL1        0.0543
     10 C         139.1048  142.7785  158.1728 C.ar    1  UNL1        0.0124
     11 C         138.8750  142.9611  156.7018 C.ar    1  UNL1        0.0382
     12 C         139.2048  144.2702  156.0480 C.1     1  UNL1       -0.0585
     13 C         139.5347  145.5794  155.3943 C.1     1  UNL1       -0.0388
     14 C         139.8645  146.8885  154.7405 C.ar    1  UNL1        0.1451
     15 C         140.7057  147.0735  153.5125 C.ar    1  UNL1        0.1281
     16 N         140.7720  148.5418  153.2130 N.ar    1  UNL1       -0.2228
     17 C         139.9718  149.2643  154.2559 C.ar    1  UNL1        0.1646
     18 C         139.6814  150.7205  154.4679 C.ar    1  UNL1        0.0405
     19 C         138.8301  151.1549  155.6240 C.ar    1  UNL1        0.0256
     20 C         138.2692  150.1331  156.5681 C.ar    1  UNL1        0.1207
     21 N         138.5596  148.6769  156.3561 N.ar    1  UNL1       -0.1616
     22 N         139.4109  148.2424  155.2000 N.ar    1  UNL1       -0.2030
     23 C         138.3360  140.2022  162.5617 C.ar    1  UNL1        0.0514
     24 C         138.0020  141.3100  163.5163 C.ar    1  UNL1        0.0145
     25 C         138.2318  141.1273  164.9873 C.ar    1  UNL1       -0.0008
     26 C         138.7956  139.8369  165.5038 C.ar    1  UNL1        0.0045
     27 C         139.1296  138.7290  164.5493 C.ar    1  UNL1        0.0562
     28 CL        139.6933  137.4385  165.0657 Cl      1  UNL1       -0.0825
     29 C         138.8998  138.9117  163.0783 C.ar    1  UNL1        0.0258
     30 C         139.0253  139.6542  166.9748 C.3     1  UNL1        0.1003
     31 N         140.1019  140.4352  167.6683 N.3     1  UNL1       -0.2633
     32 C         140.1351  140.7885  169.1257 C.3     1  UNL1        0.0987
     33 C         141.3880  141.5717  169.3844 C.2     1  UNL1        0.0177
     34 C         142.1828  142.2741  170.4450 C.2     1  UNL1        0.1165
     35 N         143.4152  142.8388  169.8030 N.2     1  UNL1       -0.1513
     36 N         143.3820  142.4855  168.3456 N.2     1  UNL1       -0.1708
     37 C         142.1291  141.7024  168.0869 C.3     1  UNL1        0.1621
     38 C         141.3343  141.0000  167.0263 C.3     1  UNL1        0.1034
@<TRIPOS>BOND
     1     5     6    1
     2     6     7   ar
     3     7     8   ar
     4     8     9   ar
     5     9     1    1
     6     1     2    2
     7     1     3   am
     8     3    23    1
     9    23    24   ar
    10    24    25   ar
    11    25    26   ar
    12    26    30    1
    13    30    31    1
    14    31    32    1
    15    32    33    1
    16    33    34    2
    17    34    35    1
    18    35    36    2
    19    36    37    1
    20    37    38    1
    21    26    27   ar
    22    27    28    1
    23    27    29   ar
    24     9    10   ar
    25    10    11   ar
    26    11    12    1
    27    12    13    3
    28    13    14    1
    29    14    15   ar
    30    15    16   ar
    31    16    17   ar
    32    17    18   ar
    33    18    19   ar
    34    19    20   ar
    35    20    21   ar
    36    21    22   ar
    37    11     6   ar
    38    22    14   ar
    39    29    23   ar
    40    22    17   ar
    41    38    31    1
    42    37    33    1
    43     3     4    1
@<TRIPOS>MOLECULE
*****
 38 43 0 0 0
SMALL
GASTEIGER

@<TRIPOS>ATOM
      1 C         142.8944  138.9045  159.4853 C.2     1  UNL1        0.2495
      2 O         144.2721  139.3268  159.9021 O.2     1  UNL1       -0.2698
      3 N         141.7492  139.0277  160.4463 N.am    1  UNL1       -0.2804
      4 H         140.8450  138.7506  160.1727 H       1  UNL1        0.1552
      5 C         141.9641  136.7227  153.9740 C.3     1  UNL1        0.0317
      6 C         142.1967  137.2681  155.3518 C.ar    1  UNL1       -0.0142
      7 C         142.2466  138.7509  155.5729 C.ar    1  UNL1       -0.0035
      8 C         142.4791  139.2964  156.9506 C.ar    1  UNL1        0.0042
      9 C         142.6618  138.3591  158.1075 C.ar    1  UNL1        0.0543
     10 C         142.6119  136.8763  157.8864 C.ar    1  UNL1        0.0124
     11 C         142.3793  136.3309  156.5086 C.ar    1  UNL1        0.0382
     12 C         142.3294  134.8481  156.2875 C.1     1  UNL1       -0.0585
     13 C         142.2794  133.3653  156.0663 C.1     1  UNL1       -0.0388
     14 C         142.2295  131.8825  155.8452 C.ar    1  UNL1        0.1451
     15 C         141.3690  131.1687  154.8453 C.ar    1  UNL1        0.1281
     16 N         141.6390  129.6983  154.9673 N.ar    1  UNL1       -0.2228
     17 C         142.6665  129.5033  156.0427 C.ar    1  UNL1        0.1646
     18 C         143.3168  128.2710  156.5979 C.ar    1  UNL1        0.0405
     19 C         144.3322  128.3886  157.6957 C.ar    1  UNL1        0.0256
     20 C         144.6971  129.7386  158.2383 C.ar    1  UNL1        0.1207
     21 N         144.0467  130.9709  157.6831 N.ar    1  UNL1       -0.1616
     22 N         143.0314  130.8533  156.5852 N.ar    1  UNL1       -0.2030
     23 C         141.9818  139.5732  161.8241 C.ar    1  UNL1        0.0514
     24 C         141.6995  141.0170  162.1168 C.ar    1  UNL1        0.0145
     25 C         141.9321  141.5624  163.4946 C.ar    1  UNL1       -0.0008
     26 C         142.4470  140.6640  164.5798 C.ar    1  UNL1        0.0045
     27 C         142.7293  139.2202  164.2873 C.ar    1  UNL1        0.0562
     28 CL        143.2441  138.3217  165.3724 Cl      1  UNL1       -0.0825
     29 C         142.4967  138.6748  162.9094 C.ar    1  UNL1        0.0258
     30 C         142.6795  141.2095  165.9577 C.3     1  UNL1        0.1003
     31 N         141.7553  140.8352  167.0783 N.3     1  UNL1       -0.2633
     32 C         142.0909  140.8504  168.5402 C.3     1  UNL1        0.0987
     33 C         140.8763  140.4047  169.2991 C.2     1  UNL1        0.0177
     34 C         140.3330  140.1386  170.6718 C.2     1  UNL1        0.1165
     35 N         138.9110  139.6836  170.5272 N.2     1  UNL1       -0.1513
     36 N         138.5754  139.6684  169.0653 N.2     1  UNL1       -0.1708
     37 C         139.7900  140.1141  168.3064 C.3     1  UNL1        0.1621
     38 C         140.3333  140.3802  166.9338 C.3     1  UNL1        0.1034
@<TRIPOS>BOND
     1     5     6    1
     2     6     7   ar
     3     7     8   ar
     4     8     9   ar
     5     9     1    1
     6     1     2    2
     7     1     3   am
     8     3    23    1
     9    23    24   ar
    10    24    25   ar
    11    25    26   ar
    12    26    30    1
    13    30    31    1
    14    31    32    1
    15    32    33    1
    16    33    34    2
    17    34    35    1
    18    35    36    2
    19    36    37    1
    20    37    38    1
    21    26    27   ar
    22    27    28    1
    23    27    29   ar
    24     9    10   ar
    25    10    11   ar
    26    11    12    1
    27    12    13    3
    28    13    14    1
    29    14    15   ar
    30    15    16   ar
    31    16    17   ar
    32    17    18   ar
    33    18    19   ar
    34    19    20   ar
    35    20    21   ar
    36    21    22   ar
    37    11     6   ar
    38    22    14   ar
    39    29    23   ar
    40    22    17   ar
    41    38    31    1
    42    37    33    1
    43     3     4    1
