@<TRIPOS>MOLECULE
*****
 34 35 0 0 0
SMALL
GASTEIGER

@<TRIPOS>ATOM
      1 N         141.5402  144.4542  161.1283 N.am    1  UNL1       -0.3046
      2 C         140.7340  145.1537  162.1821 C.2     1  UNL1        0.2425
      3 O         139.4276  145.7974  161.8228 O.2     1  UNL1       -0.2733
      4 H         142.3977  144.0317  161.3641 H       1  UNL1        0.1494
      5 C         140.1978  143.2424  159.2629 C.3     1  UNL1        0.0218
      6 C         139.6977  143.1865  157.8499 C.3     1  UNL1        0.0177
      7 C         140.0400  144.2864  156.8891 C.3     1  UNL1        0.0576
      8 C         140.8822  145.4422  157.3413 C.3     1  UNL1        0.0176
      9 C         141.3823  145.4981  158.7544 C.3     1  UNL1        0.0209
     10 C         141.0401  144.3982  159.7152 C.3     1  UNL1        0.0717
     11 N         139.5398  144.2304  155.4760 N.3     1  UNL1       -0.2741
     12 C         140.3371  143.5149  154.4260 C.3     1  UNL1        0.0896
     13 C         138.2425  144.8898  155.1129 C.3     1  UNL1        0.0576
     14 C         138.1869  146.3752  154.9108 C.3     1  UNL1        0.0173
     15 C         137.0006  144.0640  154.9518 C.3     1  UNL1        0.0173
     16 C         139.8556  142.1425  160.2237 C.3     1  UNL1        0.0338
     17 C         138.4261  141.8999  160.6077 C.3     1  UNL1        0.1423
     18 C         137.6227  142.9022  162.8660 C.3     1  UNL1        0.1741
     19 O         137.6655  142.9462  161.3673 O.3     1  UNL1       -0.3511
     20 C         141.2341  145.2097  163.5952 C.3     1  UNL1        0.1759
     21 N         141.1825  143.9839  164.4581 N.am    1  UNL1       -0.2931
     22 C         140.0344  143.7785  165.4013 C.2     1  UNL1        0.2462
     23 O         138.9378  144.7988  165.4815 O.2     1  UNL1       -0.2701
     24 H         141.9022  143.3142  164.4055 H       1  UNL1        0.1502
     25 C         139.9828  142.5526  166.2643 C.ar    1  UNL1        0.0533
     26 C         140.4655  142.6134  167.6831 C.ar    1  UNL1        0.0045
     27 C         140.4139  141.3876  168.5460 C.ar    1  UNL1        0.0001
     28 C         139.8795  140.1010  167.9901 C.ar    1  UNL1        0.0039
     29 C         139.3968  140.0402  166.5712 C.ar    1  UNL1        0.0716
     30 C         139.4484  141.2660  165.7083 C.ar    1  UNL1        0.0084
     31 C         138.8624  138.7536  166.0153 C.3     1  UNL1        0.4186
     32 F         138.3281  137.4669  165.4593 F       1  UNL1       -0.1659
     33 F         137.5030  139.0845  166.5560 F       1  UNL1       -0.1659
     34 F         140.2219  138.4226  165.4745 F       1  UNL1       -0.1659
@<TRIPOS>BOND
     1    18    19    1
     2    19    17    1
     3    17    16    1
     4     5    16    1
     5     5     6    1
     6     6     7    1
     7     7    11    1
     8    11    12    1
     9    11    13    1
    10    13    14    1
    11    13    15    1
    12     7     8    1
    13     8     9    1
    14     9    10    1
    15    10     1    1
    16     1     2   am
    17     2     3    2
    18     2    20    1
    19    20    21    1
    20    21    22   am
    21    22    23    2
    22    22    25    1
    23    25    26   ar
    24    26    27   ar
    25    27    28   ar
    26    28    29   ar
    27    29    31    1
    28    31    32    1
    29    31    33    1
    30    31    34    1
    31    29    30   ar
    32    10     5    1
    33    30    25   ar
    34     1     4    1
    35    21    24    1
@<TRIPOS>MOLECULE
*****
 34 35 0 0 0
SMALL
GASTEIGER

@<TRIPOS>ATOM
      1 N         138.9118  138.9384  160.5854 N.am    1  UNL1       -0.3046
      2 C         140.2508  139.0138  159.9137 C.2     1  UNL1        0.2425
      3 O         141.5001  139.1024  160.7392 O.2     1  UNL1       -0.2733
      4 H         138.0919  138.8803  160.0436 H       1  UNL1        0.1494
      5 C         138.4485  140.2146  162.8006 C.3     1  UNL1        0.0218
      6 C         138.3587  140.2278  164.2978 C.3     1  UNL1        0.0177
      7 C         138.6424  138.9780  165.0772 C.3     1  UNL1        0.0576
      8 C         139.0160  137.7150  164.3594 C.3     1  UNL1        0.0176
      9 C         139.1058  137.7018  162.8621 C.3     1  UNL1        0.0209
     10 C         138.8220  138.9516  162.0827 C.3     1  UNL1        0.0717
     11 N         138.5526  138.9912  166.5745 N.3     1  UNL1       -0.2741
     12 C         137.4155  138.2971  167.2638 C.3     1  UNL1        0.0896
     13 C         139.6000  139.6984  167.3824 C.3     1  UNL1        0.0576
     14 C         139.2753  140.1967  168.7595 C.3     1  UNL1        0.0173
     15 C         140.9720  139.9074  166.8133 C.3     1  UNL1        0.0173
     16 C         138.1647  141.4644  162.0212 C.3     1  UNL1        0.0338
     17 C         138.9769  142.7015  162.2658 C.3     1  UNL1        0.1423
     18 C         139.1082  145.2956  162.3252 C.3     1  UNL1        0.1741
     19 O         138.4565  144.0389  161.8292 O.3     1  UNL1       -0.3511
     20 C         140.3406  139.0006  158.4164 C.3     1  UNL1        0.1759
     21 N         140.7229  137.7399  157.6991 N.am    1  UNL1       -0.2931
     22 C         142.1659  137.4493  157.4107 C.2     1  UNL1        0.2462
     23 O         143.2267  138.4193  157.8396 O.2     1  UNL1       -0.2701
     24 H         140.0268  137.1033  157.4176 H       1  UNL1        0.1502
     25 C         142.5483  136.1886  156.6933 C.ar    1  UNL1        0.0533
     26 C         142.1473  135.9892  155.2618 C.ar    1  UNL1        0.0045
     27 C         142.5296  134.7285  154.5445 C.ar    1  UNL1        0.0001
     28 C         143.3131  133.6673  155.2588 C.ar    1  UNL1        0.0039
     29 C         143.7141  133.8668  156.6903 C.ar    1  UNL1        0.0716
     30 C         143.3317  135.1274  157.4076 C.ar    1  UNL1        0.0084
     31 C         144.4975  132.8056  157.4046 C.3     1  UNL1        0.4186
     32 F         145.2809  131.7444  158.1188 F       1  UNL1       -0.1659
     33 F         144.5138  131.9764  156.1547 F       1  UNL1       -0.1659
     34 F         144.4812  133.6348  158.6545 F       1  UNL1       -0.1659
@<TRIPOS>BOND
     1    18    19    1
     2    19    17    1
     3    17    16    1
     4     5    16    1
     5     5     6    1
     6     6     7    1
     7     7    11    1
     8    11    12    1
     9    11    13    1
    10    13    14    1
    11    13    15    1
    12     7     8    1
    13     8     9    1
    14     9    10    1
    15    10     1    1
    16     1     2   am
    17     2     3    2
    18     2    20    1
    19    20    21    1
    20    21    22   am
    21    22    23    2
    22    22    25    1
    23    25    26   ar
    24    26    27   ar
    25    27    28   ar
    26    28    29   ar
    27    29    31    1
    28    31    32    1
    29    31    33    1
    30    31    34    1
    31    29    30   ar
    32    10     5    1
    33    30    25   ar
    34     1     4    1
    35    21    24    1
@<TRIPOS>MOLECULE
*****
 34 35 0 0 0
SMALL
GASTEIGER

@<TRIPOS>ATOM
      1 N         142.0975  137.6443  161.2765 N.am    1  UNL1       -0.3046
      2 C         142.1898  138.6198  160.1407 C.2     1  UNL1        0.2425
      3 O         141.5330  139.9639  160.2512 O.2     1  UNL1       -0.2733
      4 H         142.5285  136.7622  161.2039 H       1  UNL1        0.1494
      5 C         142.0893  138.5465  163.7129 C.3     1  UNL1        0.0218
      6 C         141.3403  138.9151  164.9591 C.3     1  UNL1        0.0177
      7 C         139.8504  138.7500  165.0152 C.3     1  UNL1        0.0576
      8 C         139.1096  138.2163  163.8251 C.3     1  UNL1        0.0176
      9 C         139.8586  137.8478  162.5789 C.3     1  UNL1        0.0209
     10 C         141.3485  138.0129  162.5228 C.3     1  UNL1        0.0717
     11 N         139.1014  139.1185  166.2615 N.3     1  UNL1       -0.2741
     12 C         137.8811  138.3428  166.6602 C.3     1  UNL1        0.0896
     13 C         139.5728  140.2628  167.1091 C.3     1  UNL1        0.0576
     14 C         139.7471  141.6236  166.5024 C.3     1  UNL1        0.0173
     15 C         139.8698  140.0464  168.5634 C.3     1  UNL1        0.0173
     16 C         143.5791  138.7116  163.6567 C.3     1  UNL1        0.0338
     17 C         144.2443  139.7942  164.4539 C.3     1  UNL1        0.1423
     18 C         145.6127  141.8862  163.7460 C.3     1  UNL1        0.1741
     19 O         145.5248  140.4051  163.9670 O.3     1  UNL1       -0.3511
     20 C         142.9388  138.2512  158.8944 C.3     1  UNL1        0.1759
     21 N         143.0279  136.8154  158.4699 N.am    1  UNL1       -0.2931
     22 C         142.6014  136.4137  157.0891 C.2     1  UNL1        0.2462
     23 O         142.0859  137.4480  156.1327 O.2     1  UNL1       -0.2701
     24 H         143.3662  136.1365  159.0976 H       1  UNL1        0.1502
     25 C         142.6905  134.9778  156.6645 C.ar    1  UNL1        0.0533
     26 C         141.8801  134.4880  155.5012 C.ar    1  UNL1        0.0045
     27 C         141.9692  133.0521  155.0767 C.ar    1  UNL1        0.0001
     28 C         142.8687  132.1060  155.8154 C.ar    1  UNL1        0.0039
     29 C         143.6791  132.5958  156.9787 C.ar    1  UNL1        0.0716
     30 C         143.5900  134.0317  157.4032 C.ar    1  UNL1        0.0084
     31 C         144.5786  131.6497  157.7175 C.3     1  UNL1        0.4186
     32 F         145.4781  130.7036  158.4562 F       1  UNL1       -0.1659
     33 F         143.6881  130.5047  157.3354 F       1  UNL1       -0.1659
     34 F         145.4692  132.7947  158.0995 F       1  UNL1       -0.1659
@<TRIPOS>BOND
     1    18    19    1
     2    19    17    1
     3    17    16    1
     4     5    16    1
     5     5     6    1
     6     6     7    1
     7     7    11    1
     8    11    12    1
     9    11    13    1
    10    13    14    1
    11    13    15    1
    12     7     8    1
    13     8     9    1
    14     9    10    1
    15    10     1    1
    16     1     2   am
    17     2     3    2
    18     2    20    1
    19    20    21    1
    20    21    22   am
    21    22    23    2
    22    22    25    1
    23    25    26   ar
    24    26    27   ar
    25    27    28   ar
    26    28    29   ar
    27    29    31    1
    28    31    32    1
    29    31    33    1
    30    31    34    1
    31    29    30   ar
    32    10     5    1
    33    30    25   ar
    34     1     4    1
    35    21    24    1
@<TRIPOS>MOLECULE
*****
 34 35 0 0 0
SMALL
GASTEIGER

@<TRIPOS>ATOM
      1 N         144.2610  139.0992  163.6889 N.am    1  UNL1       -0.3046
      2 C         143.3994  138.3607  162.7081 C.2     1  UNL1        0.2425
      3 O         141.9646  138.0730  163.0381 O.2     1  UNL1       -0.2733
      4 H         145.2027  139.2879  163.4724 H       1  UNL1        0.1494
      5 C         143.3956  141.0032  165.2304 C.3     1  UNL1        0.0218
      6 C         142.8226  141.4541  166.5412 C.3     1  UNL1        0.0177
      7 C         142.5419  140.4519  167.6215 C.3     1  UNL1        0.0576
      8 C         142.8342  138.9989  167.3909 C.3     1  UNL1        0.0176
      9 C         143.4073  138.5480  166.0801 C.3     1  UNL1        0.0209
     10 C         143.6880  139.5501  164.9998 C.3     1  UNL1        0.0717
     11 N         141.9689  140.9029  168.9323 N.3     1  UNL1       -0.2741
     12 C         142.7123  141.8980  169.7732 C.3     1  UNL1        0.0896
     13 C         140.6524  140.3588  169.4023 C.3     1  UNL1        0.0576
     14 C         140.4542  140.0213  170.8504 C.3     1  UNL1        0.0173
     15 C         139.5342  140.1520  168.4242 C.3     1  UNL1        0.0173
     16 C         143.6763  142.0053  164.1501 C.3     1  UNL1        0.0338
     17 C         145.0912  142.2943  163.7445 C.3     1  UNL1        0.1423
     18 C         144.6535  141.7357  161.2452 C.3     1  UNL1        0.1741
     19 O         145.5961  141.8386  162.4075 O.3     1  UNL1       -0.3511
     20 C         143.9724  137.9097  161.3972 C.3     1  UNL1        0.1759
     21 N         143.0643  137.4023  160.3166 N.am    1  UNL1       -0.2931
     22 C         142.9795  138.1275  159.0063 C.2     1  UNL1        0.2462
     23 O         143.8028  139.3602  158.7768 O.2     1  UNL1       -0.2701
     24 H         142.5239  136.5932  160.4673 H       1  UNL1        0.1502
     25 C         142.0714  137.6201  157.9256 C.ar    1  UNL1        0.0533
     26 C         140.6801  138.1659  157.7974 C.ar    1  UNL1        0.0045
     27 C         139.7721  137.6585  156.7167 C.ar    1  UNL1        0.0001
     28 C         140.2553  136.6053  155.7642 C.ar    1  UNL1        0.0039
     29 C         141.6465  136.0596  155.8924 C.ar    1  UNL1        0.0716
     30 C         142.5546  136.5670  156.9731 C.ar    1  UNL1        0.0084
     31 C         142.1297  135.0064  154.9399 C.3     1  UNL1        0.4186
     32 F         142.6129  133.9532  153.9874 F       1  UNL1       -0.1659
     33 F         142.8501  136.0552  154.1456 F       1  UNL1       -0.1659
     34 F         141.4093  133.9575  155.7341 F       1  UNL1       -0.1659
@<TRIPOS>BOND
     1    18    19    1
     2    19    17    1
     3    17    16    1
     4     5    16    1
     5     5     6    1
     6     6     7    1
     7     7    11    1
     8    11    12    1
     9    11    13    1
    10    13    14    1
    11    13    15    1
    12     7     8    1
    13     8     9    1
    14     9    10    1
    15    10     1    1
    16     1     2   am
    17     2     3    2
    18     2    20    1
    19    20    21    1
    20    21    22   am
    21    22    23    2
    22    22    25    1
    23    25    26   ar
    24    26    27   ar
    25    27    28   ar
    26    28    29   ar
    27    29    31    1
    28    31    32    1
    29    31    33    1
    30    31    34    1
    31    29    30   ar
    32    10     5    1
    33    30    25   ar
    34     1     4    1
    35    21    24    1
@<TRIPOS>MOLECULE
*****
 34 35 0 0 0
SMALL
GASTEIGER

@<TRIPOS>ATOM
      1 N         139.6225  139.7488  160.1405 N.am    1  UNL1       -0.3046
      2 C         138.9027  139.1363  161.3052 C.2     1  UNL1        0.2425
      3 O         139.0322  137.6671  161.5786 O.2     1  UNL1       -0.2733
      4 H         139.5375  140.7131  159.9611 H       1  UNL1        0.1494
      5 C         141.8733  138.5449  159.6560 C.3     1  UNL1        0.0218
      6 C         142.7227  137.6882  158.7646 C.3     1  UNL1        0.0177
      7 C         142.1707  137.1788  157.4662 C.3     1  UNL1        0.0576
      8 C         140.7694  137.5261  157.0592 C.3     1  UNL1        0.0176
      9 C         139.9200  138.3827  157.9506 C.3     1  UNL1        0.0209
     10 C         140.4720  138.8921  159.2490 C.3     1  UNL1        0.0717
     11 N         143.0202  136.3221  156.5748 N.3     1  UNL1       -0.2741
     12 C         144.0109  136.9583  155.6454 C.3     1  UNL1        0.0896
     13 C         142.8789  134.8293  156.6127 C.3     1  UNL1        0.0576
     14 C         141.9128  134.1437  155.6925 C.3     1  UNL1        0.0173
     15 C         143.7037  134.0220  157.5709 C.3     1  UNL1        0.0173
     16 C         142.4252  139.0542  160.9545 C.3     1  UNL1        0.0338
     17 C         142.7047  138.0992  162.0768 C.3     1  UNL1        0.1423
     18 C         142.6751  139.7170  164.1095 C.3     1  UNL1        0.1741
     19 O         143.3227  138.5976  163.3494 O.3     1  UNL1       -0.3511
     20 C         138.0532  139.9930  162.1966 C.3     1  UNL1        0.1759
     21 N         138.6703  140.7014  163.3659 N.am    1  UNL1       -0.2931
     22 C         138.8230  139.9907  164.6780 C.2     1  UNL1        0.2462
     23 O         138.3585  138.5716  164.8207 O.2     1  UNL1       -0.2701
     24 H         138.9752  141.6328  163.2723 H       1  UNL1        0.1502
     25 C         139.4401  140.6991  165.8474 C.ar    1  UNL1        0.0533
     26 C         140.1251  142.0186  165.6486 C.ar    1  UNL1        0.0045
     27 C         140.7422  142.7269  166.8180 C.ar    1  UNL1        0.0001
     28 C         140.6743  142.1157  168.1861 C.ar    1  UNL1        0.0039
     29 C         139.9893  140.7962  168.3849 C.ar    1  UNL1        0.0716
     30 C         139.3723  140.0878  167.2155 C.ar    1  UNL1        0.0084
     31 C         139.9215  140.1849  169.7530 C.3     1  UNL1        0.4186
     32 F         139.8536  139.5737  171.1211 F       1  UNL1       -0.1659
     33 F         138.6381  140.9156  170.0158 F       1  UNL1       -0.1659
     34 F         141.2048  139.4542  169.4902 F       1  UNL1       -0.1659
@<TRIPOS>BOND
     1    18    19    1
     2    19    17    1
     3    17    16    1
     4     5    16    1
     5     5     6    1
     6     6     7    1
     7     7    11    1
     8    11    12    1
     9    11    13    1
    10    13    14    1
    11    13    15    1
    12     7     8    1
    13     8     9    1
    14     9    10    1
    15    10     1    1
    16     1     2   am
    17     2     3    2
    18     2    20    1
    19    20    21    1
    20    21    22   am
    21    22    23    2
    22    22    25    1
    23    25    26   ar
    24    26    27   ar
    25    27    28   ar
    26    28    29   ar
    27    29    31    1
    28    31    32    1
    29    31    33    1
    30    31    34    1
    31    29    30   ar
    32    10     5    1
    33    30    25   ar
    34     1     4    1
    35    21    24    1
@<TRIPOS>MOLECULE
*****
 34 35 0 0 0
SMALL
GASTEIGER

@<TRIPOS>ATOM
      1 N         139.2558  142.6647  164.1851 N.am    1  UNL1       -0.3046
      2 C         138.3271  143.8401  164.1083 C.2     1  UNL1        0.2425
      3 O         137.7953  144.4593  165.3668 O.2     1  UNL1       -0.2733
      4 H         139.6048  142.2583  163.3591 H       1  UNL1        0.1494
      5 C         139.1782  140.7479  165.9372 C.3     1  UNL1        0.0218
      6 C         139.5751  140.1916  167.2725 C.3     1  UNL1        0.0177
      7 C         140.4465  140.9960  168.1910 C.3     1  UNL1        0.0576
      8 C         140.9210  142.3565  167.7743 C.3     1  UNL1        0.0176
      9 C         140.5241  142.9127  166.4390 C.3     1  UNL1        0.0209
     10 C         139.6527  142.1084  165.5205 C.3     1  UNL1        0.0717
     11 N         140.8434  140.4397  169.5264 N.3     1  UNL1       -0.2741
     12 C         139.8064  140.2296  170.5896 C.3     1  UNL1        0.0896
     13 C         142.2773  140.0935  169.7985 C.3     1  UNL1        0.0576
     14 C         143.2937  141.1841  169.9650 C.3     1  UNL1        0.0173
     15 C         142.6950  138.6566  169.9040 C.3     1  UNL1        0.0173
     16 C         138.3068  139.9435  165.0187 C.3     1  UNL1        0.0338
     17 C         138.9252  139.1216  163.9270 C.3     1  UNL1        0.1423
     18 C         140.8100  137.5007  164.6822 C.3     1  UNL1        0.1741
     19 O         140.3798  138.7610  163.9919 O.3     1  UNL1       -0.3511
     20 C         137.9302  144.3964  162.7730 C.3     1  UNL1        0.1759
     21 N         138.7945  144.1519  161.5717 N.am    1  UNL1       -0.2931
     22 C         139.9273  145.0846  161.2605 C.2     1  UNL1        0.2462
     23 O         140.1957  146.2618  162.1505 O.2     1  UNL1       -0.2701
     24 H         138.6184  143.3792  160.9875 H       1  UNL1        0.1502
     25 C         140.7917  144.8401  160.0591 C.ar    1  UNL1        0.0533
     26 C         141.9086  143.8415  160.1296 C.ar    1  UNL1        0.0045
     27 C         142.7730  143.5971  158.9283 C.ar    1  UNL1        0.0001
     28 C         142.5204  144.3513  157.6566 C.ar    1  UNL1        0.0039
     29 C         141.4034  145.3500  157.5861 C.ar    1  UNL1        0.0716
     30 C         140.5391  145.5944  158.7874 C.ar    1  UNL1        0.0084
     31 C         141.1508  146.1042  156.3144 C.3     1  UNL1        0.4186
     32 F         140.8982  146.8585  155.0427 F       1  UNL1       -0.1659
     33 F         142.3960  145.5170  155.7188 F       1  UNL1       -0.1659
     34 F         139.9056  146.6914  156.9100 F       1  UNL1       -0.1659
@<TRIPOS>BOND
     1    18    19    1
     2    19    17    1
     3    17    16    1
     4     5    16    1
     5     5     6    1
     6     6     7    1
     7     7    11    1
     8    11    12    1
     9    11    13    1
    10    13    14    1
    11    13    15    1
    12     7     8    1
    13     8     9    1
    14     9    10    1
    15    10     1    1
    16     1     2   am
    17     2     3    2
    18     2    20    1
    19    20    21    1
    20    21    22   am
    21    22    23    2
    22    22    25    1
    23    25    26   ar
    24    26    27   ar
    25    27    28   ar
    26    28    29   ar
    27    29    31    1
    28    31    32    1
    29    31    33    1
    30    31    34    1
    31    29    30   ar
    32    10     5    1
    33    30    25   ar
    34     1     4    1
    35    21    24    1
@<TRIPOS>MOLECULE
*****
 34 35 0 0 0
SMALL
GASTEIGER

@<TRIPOS>ATOM
      1 N         141.4898  145.0723  161.3507 N.am    1  UNL1       -0.3046
      2 C         142.7815  144.4624  161.8085 C.2     1  UNL1        0.2425
      3 O         143.5187  143.5089  160.9155 O.2     1  UNL1       -0.2733
      4 H         141.0060  145.6981  161.9368 H       1  UNL1        0.1494
      5 C         139.9657  143.5937  159.8537 C.3     1  UNL1        0.0218
      6 C         139.4113  143.2503  158.5029 C.3     1  UNL1        0.0177
      7 C         139.8266  144.0419  157.2983 C.3     1  UNL1        0.0576
      8 C         140.7962  145.1769  157.4445 C.3     1  UNL1        0.0176
      9 C         141.3506  145.5203  158.7953 C.3     1  UNL1        0.0209
     10 C         140.9354  144.7288  159.9999 C.3     1  UNL1        0.0717
     11 N         139.2721  143.6983  155.9475 N.3     1  UNL1       -0.2741
     12 C         140.0266  142.7720  155.0406 C.3     1  UNL1        0.0896
     13 C         137.9632  144.2812  155.5037 C.3     1  UNL1        0.0576
     14 C         136.7144  143.4522  155.5632 C.3     1  UNL1        0.0173
     15 C         137.9030  145.6929  155.0004 C.3     1  UNL1        0.0173
     16 C         139.5505  142.8022  161.0582 C.3     1  UNL1        0.0338
     17 C         138.1313  142.3367  161.1971 C.3     1  UNL1        0.1423
     18 C         137.7251  143.8083  163.2994 C.3     1  UNL1        0.1741
     19 O         137.3697  142.6181  162.4584 O.3     1  UNL1       -0.3511
     20 C         143.3360  144.8059  163.1593 C.3     1  UNL1        0.1759
     21 N         142.9614  143.9819  164.3554 N.am    1  UNL1       -0.2931
     22 C         143.7433  142.7461  164.6894 C.2     1  UNL1        0.2462
     23 O         144.8997  142.3344  163.8273 O.2     1  UNL1       -0.2701
     24 H         142.2025  144.2521  164.9213 H       1  UNL1        0.1502
     25 C         143.3688  141.9221  165.8856 C.ar    1  UNL1        0.0533
     26 C         143.0418  140.4674  165.7216 C.ar    1  UNL1        0.0045
     27 C         142.6673  139.6434  166.9177 C.ar    1  UNL1        0.0001
     28 C         142.6199  140.2741  168.2778 C.ar    1  UNL1        0.0039
     29 C         142.9469  141.7288  168.4418 C.ar    1  UNL1        0.0716
     30 C         143.3214  142.5528  167.2457 C.ar    1  UNL1        0.0084
     31 C         142.8995  142.3594  169.8020 C.3     1  UNL1        0.4186
     32 F         142.8521  142.9901  171.1621 F       1  UNL1       -0.1659
     33 F         141.4083  142.1985  169.8246 F       1  UNL1       -0.1659
     34 F         144.3907  142.5204  169.7794 F       1  UNL1       -0.1659
@<TRIPOS>BOND
     1    18    19    1
     2    19    17    1
     3    17    16    1
     4     5    16    1
     5     5     6    1
     6     6     7    1
     7     7    11    1
     8    11    12    1
     9    11    13    1
    10    13    14    1
    11    13    15    1
    12     7     8    1
    13     8     9    1
    14     9    10    1
    15    10     1    1
    16     1     2   am
    17     2     3    2
    18     2    20    1
    19    20    21    1
    20    21    22   am
    21    22    23    2
    22    22    25    1
    23    25    26   ar
    24    26    27   ar
    25    27    28   ar
    26    28    29   ar
    27    29    31    1
    28    31    32    1
    29    31    33    1
    30    31    34    1
    31    29    30   ar
    32    10     5    1
    33    30    25   ar
    34     1     4    1
    35    21    24    1
@<TRIPOS>MOLECULE
*****
 34 35 0 0 0
SMALL
GASTEIGER

@<TRIPOS>ATOM
      1 N         143.5307  138.5322  160.1478 N.am    1  UNL1       -0.3046
      2 C         142.8119  139.1036  158.9617 C.2     1  UNL1        0.2425
      3 O         141.9912  140.3502  159.1111 O.2     1  UNL1       -0.2733
      4 H         144.0693  137.7140  160.0498 H       1  UNL1        0.1494
      5 C         142.3602  138.7961  162.4523 C.3     1  UNL1        0.0218
      6 C         142.2583  139.4713  163.7877 C.3     1  UNL1        0.0177
      7 C         143.2250  140.5581  164.1544 C.3     1  UNL1        0.0576
      8 C         144.2936  140.9696  163.1855 C.3     1  UNL1        0.0176
      9 C         144.3955  140.2943  161.8500 C.3     1  UNL1        0.0209
     10 C         143.4288  139.2075  161.4834 C.3     1  UNL1        0.0717
     11 N         143.1231  141.2334  165.4899 N.3     1  UNL1       -0.2741
     12 C         143.7918  142.5573  165.7139 C.3     1  UNL1        0.0896
     13 C         142.3526  140.5848  166.6014 C.3     1  UNL1        0.0576
     14 C         142.8829  139.3444  167.2575 C.3     1  UNL1        0.0173
     15 C         141.0517  141.1765  167.0570 C.3     1  UNL1        0.0173
     16 C         141.3935  137.7093  162.0857 C.3     1  UNL1        0.0338
     17 C         140.0660  138.0589  161.4812 C.3     1  UNL1        0.1423
     18 C         138.9174  137.7305  163.7883 C.3     1  UNL1        0.1741
     19 O         138.8201  137.9847  162.3132 O.3     1  UNL1       -0.3511
     20 C         142.9138  138.4283  157.6262 C.3     1  UNL1        0.1759
     21 N         142.6235  136.9618  157.5031 N.am    1  UNL1       -0.2931
     22 C         143.4168  136.1176  156.5503 C.2     1  UNL1        0.2462
     23 O         144.5004  136.7399  155.7205 O.2     1  UNL1       -0.2701
     24 H         141.9122  136.5534  158.0477 H       1  UNL1        0.1502
     25 C         143.1265  134.6511  156.4272 C.ar    1  UNL1        0.0533
     26 C         141.9951  134.1805  155.5621 C.ar    1  UNL1        0.0045
     27 C         141.7049  132.7141  155.4390 C.ar    1  UNL1        0.0001
     28 C         142.5460  131.7182  156.1811 C.ar    1  UNL1        0.0039
     29 C         143.6773  132.1887  157.0463 C.ar    1  UNL1        0.0716
     30 C         143.9676  133.6552  157.1693 C.ar    1  UNL1        0.0084
     31 C         144.5184  131.1928  157.7884 C.3     1  UNL1        0.4186
     32 F         145.3595  130.1969  158.5305 F       1  UNL1       -0.1659
     33 F         143.3692  130.2289  157.7974 F       1  UNL1       -0.1659
     34 F         145.6677  132.1568  157.7795 F       1  UNL1       -0.1659
@<TRIPOS>BOND
     1    18    19    1
     2    19    17    1
     3    17    16    1
     4     5    16    1
     5     5     6    1
     6     6     7    1
     7     7    11    1
     8    11    12    1
     9    11    13    1
    10    13    14    1
    11    13    15    1
    12     7     8    1
    13     8     9    1
    14     9    10    1
    15    10     1    1
    16     1     2   am
    17     2     3    2
    18     2    20    1
    19    20    21    1
    20    21    22   am
    21    22    23    2
    22    22    25    1
    23    25    26   ar
    24    26    27   ar
    25    27    28   ar
    26    28    29   ar
    27    29    31    1
    28    31    32    1
    29    31    33    1
    30    31    34    1
    31    29    30   ar
    32    10     5    1
    33    30    25   ar
    34     1     4    1
    35    21    24    1
@<TRIPOS>MOLECULE
*****
 34 35 0 0 0
SMALL
GASTEIGER

@<TRIPOS>ATOM
      1 N         140.7533  138.2689  159.3916 N.am    1  UNL1       -0.3046
      2 C         139.6605  138.6858  158.4524 C.2     1  UNL1        0.2425
      3 O         138.4869  139.4659  158.9663 O.2     1  UNL1       -0.2733
      4 H         141.5235  137.7569  159.0543 H       1  UNL1        0.1494
      5 C         141.4692  139.7873  161.3745 C.3     1  UNL1        0.0218
      6 C         141.3883  140.1505  162.8276 C.3     1  UNL1        0.0177
      7 C         140.5108  139.3585  163.7509 C.3     1  UNL1        0.0576
      8 C         139.7141  138.2033  163.2212 C.3     1  UNL1        0.0176
      9 C         139.7949  137.8401  161.7681 C.3     1  UNL1        0.0209
     10 C         140.6724  138.6321  160.8448 C.3     1  UNL1        0.0717
     11 N         140.4300  139.7218  165.2041 N.3     1  UNL1       -0.2741
     12 C         141.6663  139.6972  166.0532 C.3     1  UNL1        0.0896
     13 C         139.1129  140.1096  165.8081 C.3     1  UNL1        0.0576
     14 C         138.2455  141.1261  165.1265 C.3     1  UNL1        0.0173
     15 C         138.6632  139.4811  167.0937 C.3     1  UNL1        0.0173
     16 C         142.3467  140.5794  160.4511 C.3     1  UNL1        0.0338
     17 C         143.7218  140.0837  160.1144 C.3     1  UNL1        0.1423
     18 C         144.1871  137.8124  161.2870 C.3     1  UNL1        0.1741
     19 O         143.9885  138.6099  160.0321 O.3     1  UNL1       -0.3511
     20 C         139.7413  138.3225  156.9993 C.3     1  UNL1        0.1759
     21 N         140.2820  136.9847  156.5895 N.am    1  UNL1       -0.2931
     22 C         141.7630  136.7479  156.5716 C.2     1  UNL1        0.2462
     23 O         142.7034  137.8489  156.9633 O.2     1  UNL1       -0.2701
     24 H         139.6648  136.2621  156.3325 H       1  UNL1        0.1502
     25 C         142.3038  135.4101  156.1618 C.ar    1  UNL1        0.0533
     26 C         141.8221  134.7615  154.8980 C.ar    1  UNL1        0.0045
     27 C         142.3629  133.4238  154.4883 C.ar    1  UNL1        0.0001
     28 C         143.3853  132.7345  155.3425 C.ar    1  UNL1        0.0039
     29 C         143.8669  133.3830  156.6064 C.ar    1  UNL1        0.0716
     30 C         143.3262  134.7208  157.0160 C.ar    1  UNL1        0.0084
     31 C         144.8893  132.6937  157.4606 C.3     1  UNL1        0.4186
     32 F         145.9116  132.0045  158.3148 F       1  UNL1       -0.1659
     33 F         144.4828  133.5403  158.6302 F       1  UNL1       -0.1659
     34 F         145.2958  131.8472  156.2909 F       1  UNL1       -0.1659
@<TRIPOS>BOND
     1    18    19    1
     2    19    17    1
     3    17    16    1
     4     5    16    1
     5     5     6    1
     6     6     7    1
     7     7    11    1
     8    11    12    1
     9    11    13    1
    10    13    14    1
    11    13    15    1
    12     7     8    1
    13     8     9    1
    14     9    10    1
    15    10     1    1
    16     1     2   am
    17     2     3    2
    18     2    20    1
    19    20    21    1
    20    21    22   am
    21    22    23    2
    22    22    25    1
    23    25    26   ar
    24    26    27   ar
    25    27    28   ar
    26    28    29   ar
    27    29    31    1
    28    31    32    1
    29    31    33    1
    30    31    34    1
    31    29    30   ar
    32    10     5    1
    33    30    25   ar
    34     1     4    1
    35    21    24    1
