@<TRIPOS>MOLECULE
*****
 36 39 0 0 0
SMALL
GASTEIGER

@<TRIPOS>ATOM
      1 C         139.1494  139.3021  160.1712 C.ar    1  UNL1        0.0528
      2 C         139.3014  140.6490  160.8138 C.ar    1  UNL1        0.0161
      3 C         139.4742  140.7558  162.3000 C.ar    1  UNL1        0.0181
      4 C         139.4951  139.5157  163.1436 C.ar    1  UNL1        0.0757
      5 C         139.3431  138.1688  162.5011 C.ar    1  UNL1        0.1545
      6 F         139.3640  136.9287  163.3447 F       1  UNL1       -0.2028
      7 C         139.1703  138.0620  161.0149 C.ar    1  UNL1        0.0456
      8 N         139.6680  139.6225  164.6298 N.pl3   1  UNL1       -0.3057
      9 C         141.0246  139.8933  165.2095 C.3     1  UNL1        0.0922
     10 C         141.1974  140.0001  166.6957 C.3     1  UNL1        0.0374
     11 C         140.0136  139.8360  167.6021 C.3     1  UNL1        0.0610
     12 C         138.6569  139.5652  167.0224 C.3     1  UNL1        0.0374
     13 C         138.4841  139.4584  165.5363 C.3     1  UNL1        0.0922
     14 N         140.1865  139.9428  169.0883 N.3     1  UNL1       -0.2706
     15 C         139.0448  140.4041  169.9450 C.3     1  UNL1        0.0897
     16 C         141.5010  139.5884  169.7179 C.3     1  UNL1        0.1042
     17 C         142.2523  140.6141  170.5137 C.3     1  UNL1        0.1544
     18 O         142.0521  140.7064  171.9974 O.3     1  UNL1       -0.3805
     19 H         141.1434  140.9898  172.1840 H       1  UNL1        0.2105
     20 N         138.9765  139.1954  158.6851 N.pl3   1  UNL1       -0.2825
     21 H         138.0841  139.3052  158.2842 H       1  UNL1        0.1551
     22 C         143.7240  138.0991  155.1837 C.3     1  UNL1        0.0342
     23 C         142.5371  138.3731  156.0590 C.ar    1  UNL1        0.0152
     24 C         142.1553  139.7869  156.3838 C.ar    1  UNL1        0.0990
     25 N         140.9684  140.0609  157.2592 N.ar    1  UNL1       -0.2123
     26 C         140.1634  138.9213  157.8097 C.ar    1  UNL1        0.2207
     27 N         140.5453  137.5076  157.4849 N.ar    1  UNL1       -0.2138
     28 C         141.7321  137.2335  156.6096 C.ar    1  UNL1        0.0847
     29 C         142.1140  135.8197  156.2848 C.ar    1  UNL1        0.0571
     30 C         141.4523  134.9395  155.2663 C.ar    1  UNL1        0.1231
     31 N         142.1539  133.6137  155.2735 N.ar    1  UNL1       -0.1677
     32 N         143.2493  133.6746  156.2966 N.ar    1  UNL1       -0.2513
     33 C         143.2246  135.0379  156.9215 C.ar    1  UNL1        0.0980
     34 C         144.2020  132.5666  156.6351 C.3     1  UNL1        0.1054
     35 C         144.3990  131.4283  155.6783 C.3     1  UNL1        0.0263
     36 C         144.9578  132.5969  157.9305 C.3     1  UNL1        0.0263
@<TRIPOS>BOND
     1    22    23    1
     2    23    24   ar
     3    24    25   ar
     4    25    26   ar
     5    26    20    1
     6    20     1    1
     7     1     2   ar
     8     2     3   ar
     9     3     4   ar
    10     4     8    1
    11     8     9    1
    12     9    10    1
    13    10    11    1
    14    11    14    1
    15    14    15    1
    16    14    16    1
    17    16    17    1
    18    17    18    1
    19    11    12    1
    20    12    13    1
    21     4     5   ar
    22     5     6    1
    23     5     7   ar
    24    26    27   ar
    25    27    28   ar
    26    28    29    1
    27    29    30   ar
    28    30    31   ar
    29    31    32   ar
    30    32    34    1
    31    34    35    1
    32    34    36    1
    33    32    33   ar
    34    28    23   ar
    35    33    29   ar
    36     7     1   ar
    37    13     8    1
    38    20    21    1
    39    18    19    1
@<TRIPOS>MOLECULE
*****
 36 39 0 0 0
SMALL
GASTEIGER

@<TRIPOS>ATOM
      1 C         140.5321  145.0290  162.0275 C.ar    1  UNL1        0.0528
      2 C         141.5067  143.9183  162.2856 C.ar    1  UNL1        0.0161
      3 C         141.3993  143.1026  163.5398 C.ar    1  UNL1        0.0181
      4 C         140.3173  143.3976  164.5359 C.ar    1  UNL1        0.0757
      5 C         139.3427  144.5083  164.2779 C.ar    1  UNL1        0.1545
      6 F         138.2607  144.8032  165.2740 F       1  UNL1       -0.2028
      7 C         139.4501  145.3240  163.0236 C.ar    1  UNL1        0.0456
      8 N         140.2098  142.5818  165.7902 N.pl3   1  UNL1       -0.3057
      9 C         140.4542  143.2220  167.1245 C.3     1  UNL1        0.0922
     10 C         140.3468  142.4063  168.3786 C.3     1  UNL1        0.0374
     11 C         139.9950  140.9503  168.2985 C.3     1  UNL1        0.0610
     12 C         139.7505  140.3101  166.9642 C.3     1  UNL1        0.0374
     13 C         139.8580  141.1259  165.7101 C.3     1  UNL1        0.0922
     14 N         139.8875  140.1346  169.5528 N.3     1  UNL1       -0.2706
     15 C         138.5603  139.9769  170.2335 C.3     1  UNL1        0.0897
     16 C         141.1074  139.4765  170.1262 C.3     1  UNL1        0.1042
     17 C         142.2382  140.3148  170.6444 C.3     1  UNL1        0.1544
     18 O         142.2330  140.7830  172.0695 O.3     1  UNL1       -0.3805
     19 H         141.4977  141.4012  172.2040 H       1  UNL1        0.2105
     20 N         140.6396  145.8447  160.7733 N.pl3   1  UNL1       -0.2825
     21 H         140.6902  146.8264  160.8274 H       1  UNL1        0.1551
     22 C         140.7613  143.1246  155.4267 C.3     1  UNL1        0.0342
     23 C         140.7309  143.8046  156.7633 C.ar    1  UNL1        0.0152
     24 C         141.7627  144.8393  157.1021 C.ar    1  UNL1        0.0990
     25 N         141.7322  145.5194  158.4387 N.ar    1  UNL1       -0.2123
     26 C         140.6700  145.1647  159.4366 C.ar    1  UNL1        0.2207
     27 N         139.6382  144.1300  159.0979 N.ar    1  UNL1       -0.2138
     28 C         139.6687  143.4500  157.7613 C.ar    1  UNL1        0.0847
     29 C         138.6368  142.4153  157.4225 C.ar    1  UNL1        0.0571
     30 C         138.6534  140.9790  157.8548 C.ar    1  UNL1        0.1231
     31 N         137.4340  140.3113  157.2916 N.ar    1  UNL1       -0.1677
     32 N         136.6638  141.3349  156.5111 N.ar    1  UNL1       -0.2513
     33 C         137.4072  142.6352  156.5921 C.ar    1  UNL1        0.0980
     34 C         135.3763  141.0994  155.7783 C.3     1  UNL1        0.1054
     35 C         135.1604  141.7112  154.4259 C.3     1  UNL1        0.0263
     36 C         134.3047  140.2523  156.3980 C.3     1  UNL1        0.0263
@<TRIPOS>BOND
     1    22    23    1
     2    23    24   ar
     3    24    25   ar
     4    25    26   ar
     5    26    20    1
     6    20     1    1
     7     1     2   ar
     8     2     3   ar
     9     3     4   ar
    10     4     8    1
    11     8     9    1
    12     9    10    1
    13    10    11    1
    14    11    14    1
    15    14    15    1
    16    14    16    1
    17    16    17    1
    18    17    18    1
    19    11    12    1
    20    12    13    1
    21     4     5   ar
    22     5     6    1
    23     5     7   ar
    24    26    27   ar
    25    27    28   ar
    26    28    29    1
    27    29    30   ar
    28    30    31   ar
    29    31    32   ar
    30    32    34    1
    31    34    35    1
    32    34    36    1
    33    32    33   ar
    34    28    23   ar
    35    33    29   ar
    36     7     1   ar
    37    13     8    1
    38    20    21    1
    39    18    19    1
@<TRIPOS>MOLECULE
*****
 36 39 0 0 0
SMALL
GASTEIGER

@<TRIPOS>ATOM
      1 C         138.0201  139.9338  160.4735 C.ar    1  UNL1        0.0528
      2 C         138.5588  138.7047  161.1438 C.ar    1  UNL1        0.0161
      3 C         138.8214  138.7098  162.6206 C.ar    1  UNL1        0.0181
      4 C         138.5452  139.9440  163.4272 C.ar    1  UNL1        0.0757
      5 C         138.0065  141.1730  162.7570 C.ar    1  UNL1        0.1545
      6 F         137.7304  142.4072  163.5636 F       1  UNL1       -0.2028
      7 C         137.7439  141.1679  161.2801 C.ar    1  UNL1        0.0456
      8 N         138.8078  139.9490  164.9041 N.pl3   1  UNL1       -0.3057
      9 C         138.0282  139.0403  165.8076 C.3     1  UNL1        0.0922
     10 C         138.2908  139.0454  167.2844 C.3     1  UNL1        0.0374
     11 C         139.3331  139.9593  167.8576 C.3     1  UNL1        0.0610
     12 C         140.1127  140.8680  166.9541 C.3     1  UNL1        0.0374
     13 C         139.8501  140.8629  165.4773 C.3     1  UNL1        0.0922
     14 N         139.5957  139.9643  169.3345 N.3     1  UNL1       -0.2706
     15 C         138.4572  140.1228  170.2982 C.3     1  UNL1        0.0897
     16 C         140.9968  139.8109  169.8477 C.3     1  UNL1        0.1042
     17 C         141.6256  140.9099  170.6518 C.3     1  UNL1        0.1544
     18 O         142.2375  140.6063  171.9873 O.3     1  UNL1       -0.3805
     19 H         141.5433  140.3296  172.6056 H       1  UNL1        0.2105
     20 N         137.7575  139.9286  158.9967 N.pl3   1  UNL1       -0.2825
     21 H         136.8342  139.9906  158.6607 H       1  UNL1        0.1551
     22 C         142.3342  139.5306  155.1372 C.3     1  UNL1        0.0342
     23 C         141.1900  139.6301  156.1021 C.ar    1  UNL1        0.0152
     24 C         140.5446  140.9582  156.3658 C.ar    1  UNL1        0.0990
     25 N         139.4005  141.0577  157.3307 N.ar    1  UNL1       -0.2123
     26 C         138.9016  139.8291  158.0318 C.ar    1  UNL1        0.2207
     27 N         139.5470  138.5010  157.7681 N.ar    1  UNL1       -0.2138
     28 C         140.6912  138.4015  156.8033 C.ar    1  UNL1        0.0847
     29 C         141.3366  137.0733  156.5396 C.ar    1  UNL1        0.0571
     30 C         142.5524  136.5312  157.2307 C.ar    1  UNL1        0.1231
     31 N         142.8467  135.1769  156.6567 N.ar    1  UNL1       -0.1677
     32 N         141.8125  134.8821  155.6108 N.ar    1  UNL1       -0.2513
     33 C         140.8793  136.0541  155.5385 C.ar    1  UNL1        0.0980
     34 C         141.7268  133.6343  154.7828 C.3     1  UNL1        0.1054
     35 C         141.7654  132.2897  155.4464 C.3     1  UNL1        0.0263
     36 C         141.6025  133.7312  153.2911 C.3     1  UNL1        0.0263
@<TRIPOS>BOND
     1    22    23    1
     2    23    24   ar
     3    24    25   ar
     4    25    26   ar
     5    26    20    1
     6    20     1    1
     7     1     2   ar
     8     2     3   ar
     9     3     4   ar
    10     4     8    1
    11     8     9    1
    12     9    10    1
    13    10    11    1
    14    11    14    1
    15    14    15    1
    16    14    16    1
    17    16    17    1
    18    17    18    1
    19    11    12    1
    20    12    13    1
    21     4     5   ar
    22     5     6    1
    23     5     7   ar
    24    26    27   ar
    25    27    28   ar
    26    28    29    1
    27    29    30   ar
    28    30    31   ar
    29    31    32   ar
    30    32    34    1
    31    34    35    1
    32    34    36    1
    33    32    33   ar
    34    28    23   ar
    35    33    29   ar
    36     7     1   ar
    37    13     8    1
    38    20    21    1
    39    18    19    1
@<TRIPOS>MOLECULE
*****
 36 39 0 0 0
SMALL
GASTEIGER

@<TRIPOS>ATOM
      1 C         137.8291  139.9259  162.0104 C.ar    1  UNL1        0.0528
      2 C         138.7507  138.8852  162.5741 C.ar    1  UNL1        0.0161
      3 C         139.3629  139.0804  163.9294 C.ar    1  UNL1        0.0181
      4 C         139.0535  140.3164  164.7211 C.ar    1  UNL1        0.0757
      5 C         138.1320  141.3570  164.1575 C.ar    1  UNL1        0.1545
      6 F         137.8227  142.5929  164.9492 F       1  UNL1       -0.2028
      7 C         137.5197  141.1618  162.8021 C.ar    1  UNL1        0.0456
      8 N         139.6658  140.5116  166.0766 N.pl3   1  UNL1       -0.3057
      9 C         140.8204  141.4534  166.2494 C.3     1  UNL1        0.0922
     10 C         141.4325  141.6486  167.6048 C.3     1  UNL1        0.0374
     11 C         140.8902  140.9020  168.7873 C.3     1  UNL1        0.0610
     12 C         139.7356  139.9602  168.6145 C.3     1  UNL1        0.0374
     13 C         139.1234  139.7650  167.2591 C.3     1  UNL1        0.0922
     14 N         141.5025  141.0972  170.1427 N.3     1  UNL1       -0.2706
     15 C         142.6162  140.2019  170.5986 C.3     1  UNL1        0.0897
     16 C         141.0009  142.1878  171.0422 C.3     1  UNL1        0.1042
     17 C         139.8464  143.0433  170.6119 C.3     1  UNL1        0.1544
     18 O         138.7901  143.4317  171.6035 O.3     1  UNL1       -0.3805
     19 H         138.3078  142.6400  171.8889 H       1  UNL1        0.2105
     20 N         137.2169  139.7306  160.6550 N.pl3   1  UNL1       -0.2825
     21 H         136.2692  139.4762  160.5750 H       1  UNL1        0.1551
     22 C         140.5435  140.5001  155.7213 C.3     1  UNL1        0.0342
     23 C         139.7119  140.3077  156.9548 C.ar    1  UNL1        0.0152
     24 C         138.7396  141.3691  157.3768 C.ar    1  UNL1        0.0990
     25 N         137.9079  141.1767  158.6102 N.ar    1  UNL1       -0.2123
     26 C         138.0485  139.9230  159.4216 C.ar    1  UNL1        0.2207
     27 N         139.0208  138.8616  158.9995 N.ar    1  UNL1       -0.2138
     28 C         139.8525  139.0540  157.7661 C.ar    1  UNL1        0.0847
     29 C         140.8248  137.9926  157.3441 C.ar    1  UNL1        0.0571
     30 C         142.2077  137.7960  157.8908 C.ar    1  UNL1        0.1231
     31 N         142.8224  136.6233  157.1858 N.ar    1  UNL1       -0.1677
     32 N         141.8194  136.0952  156.2034 N.ar    1  UNL1       -0.2513
     33 C         140.5848  136.9414  156.3012 C.ar    1  UNL1        0.0980
     34 C         142.0165  134.9261  155.2845 C.3     1  UNL1        0.1054
     35 C         141.9516  133.5283  155.8248 C.3     1  UNL1        0.0263
     36 C         142.2784  135.1548  153.8253 C.3     1  UNL1        0.0263
@<TRIPOS>BOND
     1    22    23    1
     2    23    24   ar
     3    24    25   ar
     4    25    26   ar
     5    26    20    1
     6    20     1    1
     7     1     2   ar
     8     2     3   ar
     9     3     4   ar
    10     4     8    1
    11     8     9    1
    12     9    10    1
    13    10    11    1
    14    11    14    1
    15    14    15    1
    16    14    16    1
    17    16    17    1
    18    17    18    1
    19    11    12    1
    20    12    13    1
    21     4     5   ar
    22     5     6    1
    23     5     7   ar
    24    26    27   ar
    25    27    28   ar
    26    28    29    1
    27    29    30   ar
    28    30    31   ar
    29    31    32   ar
    30    32    34    1
    31    34    35    1
    32    34    36    1
    33    32    33   ar
    34    28    23   ar
    35    33    29   ar
    36     7     1   ar
    37    13     8    1
    38    20    21    1
    39    18    19    1
@<TRIPOS>MOLECULE
*****
 36 39 0 0 0
SMALL
GASTEIGER

@<TRIPOS>ATOM
      1 C         142.8387  138.0016  161.7953 C.ar    1  UNL1        0.0528
      2 C         141.5396  138.0059  162.5454 C.ar    1  UNL1        0.0161
      3 C         141.4513  138.6681  163.8884 C.ar    1  UNL1        0.0181
      4 C         142.6619  139.3259  164.4813 C.ar    1  UNL1        0.0757
      5 C         143.9609  139.3216  163.7313 C.ar    1  UNL1        0.1545
      6 F         145.1716  139.9794  164.3243 F       1  UNL1       -0.2028
      7 C         144.0493  138.6594  162.3882 C.ar    1  UNL1        0.0456
      8 N         142.5736  139.9881  165.8244 N.pl3   1  UNL1       -0.3057
      9 C         142.4027  141.4754  165.9175 C.3     1  UNL1        0.0922
     10 C         142.3143  142.1376  167.2605 C.3     1  UNL1        0.0374
     11 C         142.3968  141.3124  168.5104 C.3     1  UNL1        0.0610
     12 C         142.5676  139.8251  168.4173 C.3     1  UNL1        0.0374
     13 C         142.6560  139.1630  167.0743 C.3     1  UNL1        0.0922
     14 N         142.3084  141.9746  169.8535 N.3     1  UNL1       -0.2706
     15 C         143.4464  142.8153  170.3515 C.3     1  UNL1        0.0897
     16 C         141.0820  141.7960  170.6985 C.3     1  UNL1        0.1042
     17 C         139.9331  142.7510  170.5642 C.3     1  UNL1        0.1544
     18 O         140.0627  143.9618  169.6885 O.3     1  UNL1       -0.3805
     19 H         140.7288  144.5605  170.0610 H       1  UNL1        0.2105
     20 N         142.9270  137.3394  160.4523 N.pl3   1  UNL1       -0.2825
     21 H         143.0670  136.3668  160.3912 H       1  UNL1        0.1551
     22 C         142.4271  140.6179  155.4522 C.3     1  UNL1        0.0342
     23 C         142.5521  139.7983  156.7022 C.ar    1  UNL1        0.0152
     24 C         141.4651  138.8362  157.0799 C.ar    1  UNL1        0.0990
     25 N         141.5901  138.0165  158.3300 N.ar    1  UNL1       -0.2123
     26 C         142.8020  138.1590  159.2022 C.ar    1  UNL1        0.2207
     27 N         143.8890  139.1212  158.8245 N.ar    1  UNL1       -0.2138
     28 C         143.7640  139.9408  157.5744 C.ar    1  UNL1        0.0847
     29 C         144.8511  140.9030  157.1967 C.ar    1  UNL1        0.0571
     30 C         145.1501  142.2064  157.8761 C.ar    1  UNL1        0.1231
     31 N         146.3137  142.8396  157.1725 N.ar    1  UNL1       -0.1677
     32 N         146.7339  141.9275  156.0582 N.ar    1  UNL1       -0.2513
     33 C         145.8299  140.7306  156.0732 C.ar    1  UNL1        0.0980
     34 C         147.8602  142.1698  155.0977 C.3     1  UNL1        0.1054
     35 C         147.6193  142.9538  153.8418 C.3     1  UNL1        0.0263
     36 C         149.2274  141.6280  155.3930 C.3     1  UNL1        0.0263
@<TRIPOS>BOND
     1    22    23    1
     2    23    24   ar
     3    24    25   ar
     4    25    26   ar
     5    26    20    1
     6    20     1    1
     7     1     2   ar
     8     2     3   ar
     9     3     4   ar
    10     4     8    1
    11     8     9    1
    12     9    10    1
    13    10    11    1
    14    11    14    1
    15    14    15    1
    16    14    16    1
    17    16    17    1
    18    17    18    1
    19    11    12    1
    20    12    13    1
    21     4     5   ar
    22     5     6    1
    23     5     7   ar
    24    26    27   ar
    25    27    28   ar
    26    28    29    1
    27    29    30   ar
    28    30    31   ar
    29    31    32   ar
    30    32    34    1
    31    34    35    1
    32    34    36    1
    33    32    33   ar
    34    28    23   ar
    35    33    29   ar
    36     7     1   ar
    37    13     8    1
    38    20    21    1
    39    18    19    1
@<TRIPOS>MOLECULE
*****
 36 39 0 0 0
SMALL
GASTEIGER

@<TRIPOS>ATOM
      1 C         143.0647  138.5273  160.9216 C.ar    1  UNL1        0.0528
      2 C         143.6905  139.6738  161.6593 C.ar    1  UNL1        0.0161
      3 C         143.2987  139.9550  163.0796 C.ar    1  UNL1        0.0181
      4 C         142.2810  139.0900  163.7622 C.ar    1  UNL1        0.0757
      5 C         141.6552  137.9436  163.0246 C.ar    1  UNL1        0.1545
      6 F         140.6375  137.0785  163.7072 F       1  UNL1       -0.2028
      7 C         142.0470  137.6623  161.6042 C.ar    1  UNL1        0.0456
      8 N         141.8892  139.3713  165.1826 N.pl3   1  UNL1       -0.3057
      9 C         142.9073  139.2571  166.2782 C.3     1  UNL1        0.0922
     10 C         142.5154  139.5384  167.6984 C.3     1  UNL1        0.0374
     11 C         141.1054  139.9340  168.0232 C.3     1  UNL1        0.0610
     12 C         140.0873  140.0482  166.9276 C.3     1  UNL1        0.0374
     13 C         140.4792  139.7669  165.5073 C.3     1  UNL1        0.0922
     14 N         140.7136  140.2153  169.4435 N.3     1  UNL1       -0.2706
     15 C         139.2638  140.2760  169.8236 C.3     1  UNL1        0.0897
     16 C         141.7715  140.4359  170.4837 C.3     1  UNL1        0.1042
     17 C         142.3062  141.8158  170.7288 C.3     1  UNL1        0.1544
     18 O         142.1482  142.4528  172.0775 O.3     1  UNL1       -0.3805
     19 H         141.2071  142.6100  172.2526 H       1  UNL1        0.2105
     20 N         143.4566  138.2461  159.5013 N.pl3   1  UNL1       -0.2825
     21 H         144.4052  138.2680  159.2388 H       1  UNL1        0.1551
     22 C         139.2428  136.9872  155.4196 C.3     1  UNL1        0.0342
     23 C         140.2962  137.3019  156.4401 C.ar    1  UNL1        0.0152
     24 C         140.0587  138.3803  157.4552 C.ar    1  UNL1        0.0990
     25 N         141.1122  138.6951  158.4756 N.ar    1  UNL1       -0.2123
     26 C         142.4031  137.9313  158.4809 C.ar    1  UNL1        0.2207
     27 N         142.6407  136.8529  157.4657 N.ar    1  UNL1       -0.2138
     28 C         141.5872  136.5382  156.4453 C.ar    1  UNL1        0.0847
     29 C         141.8248  135.4597  155.4302 C.ar    1  UNL1        0.0571
     30 C         142.1359  135.6690  153.9778 C.ar    1  UNL1        0.1231
     31 N         142.2964  134.3212  153.3393 N.ar    1  UNL1       -0.1677
     32 N         142.0844  133.2789  154.3970 N.ar    1  UNL1       -0.2513
     33 C         141.7930  133.9825  155.6893 C.ar    1  UNL1        0.0980
     34 C         142.1521  131.7938  154.1975 C.3     1  UNL1        0.1054
     35 C         140.9542  130.9417  154.4960 C.3     1  UNL1        0.0263
     36 C         143.4175  131.1608  153.6995 C.3     1  UNL1        0.0263
@<TRIPOS>BOND
     1    22    23    1
     2    23    24   ar
     3    24    25   ar
     4    25    26   ar
     5    26    20    1
     6    20     1    1
     7     1     2   ar
     8     2     3   ar
     9     3     4   ar
    10     4     8    1
    11     8     9    1
    12     9    10    1
    13    10    11    1
    14    11    14    1
    15    14    15    1
    16    14    16    1
    17    16    17    1
    18    17    18    1
    19    11    12    1
    20    12    13    1
    21     4     5   ar
    22     5     6    1
    23     5     7   ar
    24    26    27   ar
    25    27    28   ar
    26    28    29    1
    27    29    30   ar
    28    30    31   ar
    29    31    32   ar
    30    32    34    1
    31    34    35    1
    32    34    36    1
    33    32    33   ar
    34    28    23   ar
    35    33    29   ar
    36     7     1   ar
    37    13     8    1
    38    20    21    1
    39    18    19    1
@<TRIPOS>MOLECULE
*****
 36 39 0 0 0
SMALL
GASTEIGER

@<TRIPOS>ATOM
      1 C         137.7026  139.8745  161.3083 C.ar    1  UNL1        0.0528
      2 C         137.8814  141.1925  162.0018 C.ar    1  UNL1        0.0161
      3 C         138.4591  141.2398  163.3852 C.ar    1  UNL1        0.0181
      4 C         138.8581  139.9691  164.0752 C.ar    1  UNL1        0.0757
      5 C         138.6793  138.6511  163.3818 C.ar    1  UNL1        0.1545
      6 F         139.0783  137.3804  164.0718 F       1  UNL1       -0.2028
      7 C         138.1016  138.6038  161.9983 C.ar    1  UNL1        0.0456
      8 N         139.4358  140.0165  165.4587 N.pl3   1  UNL1       -0.3057
      9 C         138.5821  139.6636  166.6405 C.3     1  UNL1        0.0922
     10 C         139.1599  139.7110  168.0239 C.3     1  UNL1        0.0374
     11 C         140.5914  140.1112  168.2255 C.3     1  UNL1        0.0610
     12 C         141.4451  140.4641  167.0438 C.3     1  UNL1        0.0374
     13 C         140.8673  140.4167  165.6604 C.3     1  UNL1        0.0922
     14 N         141.1691  140.1586  169.6091 N.3     1  UNL1       -0.2706
     15 C         142.3075  139.2541  169.9778 C.3     1  UNL1        0.0897
     16 C         140.6085  141.1105  170.6237 C.3     1  UNL1        0.1042
     17 C         140.0225  142.4185  170.1816 C.3     1  UNL1        0.1544
     18 O         139.2685  143.2710  171.1586 O.3     1  UNL1       -0.3805
     19 H         138.4573  142.8128  171.4288 H       1  UNL1        0.2105
     20 N         137.1249  139.8272  159.9248 N.pl3   1  UNL1       -0.2825
     21 H         136.1994  139.5204  159.7881 H       1  UNL1        0.1551
     22 C         140.4539  141.5074  155.2244 C.3     1  UNL1        0.0342
     23 C         139.6216  141.0873  156.3995 C.ar    1  UNL1        0.0152
     24 C         139.8496  139.7505  157.0404 C.ar    1  UNL1        0.0990
     25 N         139.0174  139.3305  158.2156 N.ar    1  UNL1       -0.2123
     26 C         137.9571  140.2472  158.7497 C.ar    1  UNL1        0.2207
     27 N         137.7291  141.5840  158.1088 N.ar    1  UNL1       -0.2138
     28 C         138.5614  142.0041  156.9336 C.ar    1  UNL1        0.0847
     29 C         138.3334  143.3410  156.2927 C.ar    1  UNL1        0.0571
     30 C         137.1878  143.7046  155.3952 C.ar    1  UNL1        0.1231
     31 N         137.3573  145.1373  154.9845 N.ar    1  UNL1       -0.1677
     32 N         138.6077  145.6592  155.6283 N.ar    1  UNL1       -0.2513
     33 C         139.2109  144.5490  156.4367 C.ar    1  UNL1        0.0980
     34 C         139.1582  147.0475  155.4881 C.3     1  UNL1        0.1054
     35 C         140.0402  147.3906  154.3244 C.3     1  UNL1        0.0263
     36 C         138.8266  148.0926  156.5117 C.3     1  UNL1        0.0263
@<TRIPOS>BOND
     1    22    23    1
     2    23    24   ar
     3    24    25   ar
     4    25    26   ar
     5    26    20    1
     6    20     1    1
     7     1     2   ar
     8     2     3   ar
     9     3     4   ar
    10     4     8    1
    11     8     9    1
    12     9    10    1
    13    10    11    1
    14    11    14    1
    15    14    15    1
    16    14    16    1
    17    16    17    1
    18    17    18    1
    19    11    12    1
    20    12    13    1
    21     4     5   ar
    22     5     6    1
    23     5     7   ar
    24    26    27   ar
    25    27    28   ar
    26    28    29    1
    27    29    30   ar
    28    30    31   ar
    29    31    32   ar
    30    32    34    1
    31    34    35    1
    32    34    36    1
    33    32    33   ar
    34    28    23   ar
    35    33    29   ar
    36     7     1   ar
    37    13     8    1
    38    20    21    1
    39    18    19    1
@<TRIPOS>MOLECULE
*****
 36 39 0 0 0
SMALL
GASTEIGER

@<TRIPOS>ATOM
      1 C         142.9950  137.9230  161.7069 C.ar    1  UNL1        0.0528
      2 C         141.7804  137.8839  162.5863 C.ar    1  UNL1        0.0161
      3 C         141.7667  138.6422  163.8804 C.ar    1  UNL1        0.0181
      4 C         142.9675  139.4397  164.2951 C.ar    1  UNL1        0.0757
      5 C         144.1820  139.4789  163.4157 C.ar    1  UNL1        0.1545
      6 F         145.3829  140.2765  163.8304 F       1  UNL1       -0.2028
      7 C         144.1958  138.7206  162.1216 C.ar    1  UNL1        0.0456
      8 N         142.9538  140.1981  165.5892 N.pl3   1  UNL1       -0.3057
      9 C         143.2588  141.6667  165.6012 C.3     1  UNL1        0.0922
     10 C         143.2450  142.4250  166.8953 C.3     1  UNL1        0.0374
     11 C         142.9262  141.7147  168.1774 C.3     1  UNL1        0.0610
     12 C         142.6213  140.2461  168.1655 C.3     1  UNL1        0.0374
     13 C         142.6350  139.4878  166.8714 C.3     1  UNL1        0.0922
     14 N         142.9125  142.4731  169.4716 N.3     1  UNL1       -0.2706
     15 C         144.1790  142.6370  170.2583 C.3     1  UNL1        0.0897
     16 C         141.6322  143.0676  169.9789 C.3     1  UNL1        0.1042
     17 C         140.6160  142.1951  170.6543 C.3     1  UNL1        0.1544
     18 O         140.5063  142.1915  172.1502 O.3     1  UNL1       -0.3805
     19 H         141.3174  141.8220  172.5330 H       1  UNL1        0.2105
     20 N         143.0087  137.1647  160.4128 N.pl3   1  UNL1       -0.2825
     21 H         143.2627  136.2135  160.4023 H       1  UNL1        0.1551
     22 C         141.5156  139.9276  155.3004 C.3     1  UNL1        0.0342
     23 C         141.8888  139.2369  156.5785 C.ar    1  UNL1        0.0152
     24 C         142.6570  137.9492  156.5384 C.ar    1  UNL1        0.0990
     25 N         143.0303  137.2584  157.8165 N.ar    1  UNL1       -0.2123
     26 C         142.6354  137.8554  159.1347 C.ar    1  UNL1        0.2207
     27 N         141.8672  139.1431  159.1748 N.ar    1  UNL1       -0.2138
     28 C         141.4939  139.8339  157.8967 C.ar    1  UNL1        0.0847
     29 C         140.7257  141.1216  157.9368 C.ar    1  UNL1        0.0571
     30 C         139.2594  141.2824  157.6647 C.ar    1  UNL1        0.1231
     31 N         138.9164  142.7348  157.8158 N.ar    1  UNL1       -0.1677
     32 N         140.1708  143.4717  158.1814 N.ar    1  UNL1       -0.2513
     33 C         141.2890  142.4747  158.2562 C.ar    1  UNL1        0.0980
     34 C         140.2866  144.9466  158.4287 C.3     1  UNL1        0.1054
     35 C         140.3654  145.8973  157.2711 C.3     1  UNL1        0.0263
     36 C         140.3237  145.4709  159.8336 C.3     1  UNL1        0.0263
@<TRIPOS>BOND
     1    22    23    1
     2    23    24   ar
     3    24    25   ar
     4    25    26   ar
     5    26    20    1
     6    20     1    1
     7     1     2   ar
     8     2     3   ar
     9     3     4   ar
    10     4     8    1
    11     8     9    1
    12     9    10    1
    13    10    11    1
    14    11    14    1
    15    14    15    1
    16    14    16    1
    17    16    17    1
    18    17    18    1
    19    11    12    1
    20    12    13    1
    21     4     5   ar
    22     5     6    1
    23     5     7   ar
    24    26    27   ar
    25    27    28   ar
    26    28    29    1
    27    29    30   ar
    28    30    31   ar
    29    31    32   ar
    30    32    34    1
    31    34    35    1
    32    34    36    1
    33    32    33   ar
    34    28    23   ar
    35    33    29   ar
    36     7     1   ar
    37    13     8    1
    38    20    21    1
    39    18    19    1
@<TRIPOS>MOLECULE
*****
 36 39 0 0 0
SMALL
GASTEIGER

@<TRIPOS>ATOM
      1 C         139.6199  139.5745  160.1762 C.ar    1  UNL1        0.0528
      2 C         139.3696  138.3396  160.9902 C.ar    1  UNL1        0.0161
      3 C         139.4758  138.3928  162.4855 C.ar    1  UNL1        0.0181
      4 C         139.8322  139.6807  163.1668 C.ar    1  UNL1        0.0757
      5 C         140.0824  140.9155  162.3528 C.ar    1  UNL1        0.1545
      6 F         140.4388  142.2035  163.0341 F       1  UNL1       -0.2028
      7 C         139.9763  140.8624  160.8575 C.ar    1  UNL1        0.0456
      8 N         139.9384  139.7338  164.6622 N.pl3   1  UNL1       -0.3057
      9 C         141.2639  140.0025  165.3109 C.3     1  UNL1        0.0922
     10 C         141.3700  140.0556  166.8061 C.3     1  UNL1        0.0374
     11 C         140.1506  139.8400  167.6527 C.3     1  UNL1        0.0610
     12 C         138.8251  139.5713  167.0040 C.3     1  UNL1        0.0374
     13 C         138.7190  139.5182  165.5087 C.3     1  UNL1        0.0922
     14 N         140.2568  139.8931  169.1480 N.3     1  UNL1       -0.2706
     15 C         139.1109  140.4150  169.9632 C.3     1  UNL1        0.0897
     16 C         141.5089  139.4242  169.8281 C.3     1  UNL1        0.1042
     17 C         142.4119  140.4142  170.5022 C.3     1  UNL1        0.1544
     18 O         142.2197  140.7372  171.9543 O.3     1  UNL1       -0.3805
     19 H         141.3681  141.1854  172.0758 H       1  UNL1        0.2105
     20 N         139.5137  139.5213  158.6809 N.pl3   1  UNL1       -0.2825
     21 H         138.6784  139.7938  158.2368 H       1  UNL1        0.1551
     22 C         144.1797  137.6484  155.4067 C.3     1  UNL1        0.0342
     23 C         143.0132  138.1167  156.2252 C.ar    1  UNL1        0.0152
     24 C         142.8567  139.5742  156.5428 C.ar    1  UNL1        0.0990
     25 N         141.6902  140.0425  157.3614 N.ar    1  UNL1       -0.2123
     26 C         140.6802  139.0531  157.8624 C.ar    1  UNL1        0.2207
     27 N         140.8367  137.5955  157.5448 N.ar    1  UNL1       -0.2138
     28 C         142.0032  137.1273  156.7262 C.ar    1  UNL1        0.0847
     29 C         142.1597  135.6696  156.4086 C.ar    1  UNL1        0.0571
     30 C         143.0774  134.7091  157.1051 C.ar    1  UNL1        0.1231
     31 N         142.9108  133.3624  156.4657 N.ar    1  UNL1       -0.1677
     32 N         141.8900  133.4907  155.3741 N.ar    1  UNL1       -0.2513
     33 C         141.4258  134.9166  155.3388 C.ar    1  UNL1        0.0980
     34 C         141.4166  132.3869  154.4755 C.3     1  UNL1        0.1054
     35 C         141.0299  132.6877  153.0578 C.3     1  UNL1        0.0263
     36 C         141.3298  130.9823  154.9947 C.3     1  UNL1        0.0263
@<TRIPOS>BOND
     1    22    23    1
     2    23    24   ar
     3    24    25   ar
     4    25    26   ar
     5    26    20    1
     6    20     1    1
     7     1     2   ar
     8     2     3   ar
     9     3     4   ar
    10     4     8    1
    11     8     9    1
    12     9    10    1
    13    10    11    1
    14    11    14    1
    15    14    15    1
    16    14    16    1
    17    16    17    1
    18    17    18    1
    19    11    12    1
    20    12    13    1
    21     4     5   ar
    22     5     6    1
    23     5     7   ar
    24    26    27   ar
    25    27    28   ar
    26    28    29    1
    27    29    30   ar
    28    30    31   ar
    29    31    32   ar
    30    32    34    1
    31    34    35    1
    32    34    36    1
    33    32    33   ar
    34    28    23   ar
    35    33    29   ar
    36     7     1   ar
    37    13     8    1
    38    20    21    1
    39    18    19    1
