@<TRIPOS>MOLECULE
*****
 42 45 0 0 0
SMALL
GASTEIGER

@<TRIPOS>ATOM
      1 C         142.2924  144.2285  161.5380 C.3     1  UNL1        0.0781
      2 C         142.7224  142.9656  160.8523 C.3     1  UNL1        0.0372
      3 C         143.8511  142.1536  161.4152 C.3     1  UNL1        0.0738
      4 N         144.5496  142.6044  162.6637 N.3     1  UNL1       -0.2726
      5 C         144.1195  143.8673  163.3494 C.3     1  UNL1        0.0738
      6 C         142.9909  144.6794  162.7865 C.3     1  UNL1        0.0372
      7 N         141.1637  145.0405  160.9751 N.am    1  UNL1       -0.2808
      8 C         140.1066  145.5889  161.8873 C.2     1  UNL1        0.2300
      9 O         138.9780  146.4010  161.3244 O.2     1  UNL1       -0.2745
     10 C         140.1747  144.4904  158.6366 C.3     1  UNL1        0.0233
     11 C         141.0922  145.3042  159.5003 C.3     1  UNL1        0.0934
     12 C         140.1782  145.3253  163.3622 C.3     1  UNL1        0.1116
     13 C         139.7598  143.9917  163.9069 C.ar    1  UNL1       -0.0130
     14 C         140.2994  143.5165  165.2232 C.ar    1  UNL1       -0.0025
     15 C         139.8810  142.1830  165.7679 C.ar    1  UNL1        0.0180
     16 C         138.9229  141.3248  164.9962 C.ar    1  UNL1        0.1057
     17 C         138.3833  141.8000  163.6798 C.ar    1  UNL1        0.0180
     18 C         138.8018  143.1335  163.1351 C.ar    1  UNL1       -0.0025
     19 S         138.5045  139.9912  165.5409 S.O2    1  UNL1        0.0104
     20 C         138.0861  138.6577  166.0855 C.3     1  UNL1        0.1816
     21 O         137.8397  139.6669  164.2360 O.2     1  UNL1       -0.1686
     22 O         139.1694  140.3155  166.8457 O.2     1  UNL1       -0.1686
     23 C         145.6782  141.7923  163.2265 C.3     1  UNL1        0.0724
     24 C         145.3901  140.5218  163.9699 C.3     1  UNL1        0.0217
     25 C         143.9775  140.1656  164.3271 C.3     1  UNL1        0.0239
     26 C         143.0796  139.5397  163.3015 C.ar    1  UNL1       -0.0202
     27 C         141.6279  139.9132  163.2475 C.ar    1  UNL1       -0.0041
     28 C         140.7300  139.2871  162.2218 C.ar    1  UNL1        0.0020
     29 C         141.2839  138.2876  161.2501 C.ar    1  UNL1        0.0296
     30 C         142.7356  137.9141  161.3041 C.ar    1  UNL1        0.1398
     31 F         143.2895  136.9146  160.3324 F       1  UNL1       -0.2042
     32 C         143.6335  138.5401  162.3297 C.ar    1  UNL1        0.0254
     33 C         143.4627  140.4355  165.7098 C.3     1  UNL1        0.0070
     34 C         142.9933  139.2999  166.5703 C.3     1  UNL1        0.0195
     35 C         142.4785  139.5698  167.9531 C.3     1  UNL1        0.0954
     36 N         142.4331  140.9751  168.4755 N.3     1  UNL1       -0.1594
     37 C         142.9024  142.1106  167.6151 C.3     1  UNL1        0.0954
     38 C         143.4172  141.8408  166.2323 C.3     1  UNL1        0.0195
     39 S         141.9183  141.2450  169.8583 S.O2    1  UNL1        0.0457
     40 C         141.4034  141.5148  171.2411 C.3     1  UNL1        0.1960
     41 O         142.8803  142.3878  169.9934 O.2     1  UNL1       -0.1572
     42 O         140.9562  140.1021  169.7231 O.2     1  UNL1       -0.1572
@<TRIPOS>BOND
     1    10    11    1
     2    11     7    1
     3     7     8   am
     4     8     9    2
     5     8    12    1
     6    12    13    1
     7    13    14   ar
     8    14    15   ar
     9    15    16   ar
    10    16    19    1
    11    19    20    1
    12    19    21    2
    13    19    22    2
    14    16    17   ar
    15    17    18   ar
    16     7     1    1
    17     1     2    1
    18     2     3    1
    19     3     4    1
    20     4    23    1
    21    23    24    1
    22    25    24    1
    23    25    26    1
    24    26    27   ar
    25    27    28   ar
    26    28    29   ar
    27    29    30   ar
    28    30    31    1
    29    30    32   ar
    30    25    33    1
    31    33    34    1
    32    34    35    1
    33    35    36    1
    34    36    39    1
    35    39    40    1
    36    39    41    2
    37    39    42    2
    38    36    37    1
    39    37    38    1
    40     4     5    1
    41     5     6    1
    42    18    13   ar
    43     6     1    1
    44    32    26   ar
    45    38    33    1
@<TRIPOS>MOLECULE
*****
 42 45 0 0 0
SMALL
GASTEIGER

@<TRIPOS>ATOM
      1 C         142.3921  140.6301  168.0944 C.3     1  UNL1        0.0781
      2 C         142.6893  139.7294  166.9324 C.3     1  UNL1        0.0372
      3 C         143.2237  140.3053  165.6546 C.3     1  UNL1        0.0738
      4 N         143.4607  141.7818  165.5388 N.3     1  UNL1       -0.2726
      5 C         143.1634  142.6826  166.7008 C.3     1  UNL1        0.0738
      6 C         142.6291  142.1068  167.9787 C.3     1  UNL1        0.0372
      7 N         141.8578  140.0542  169.3723 N.am    1  UNL1       -0.2808
      8 C         140.3970  140.1690  169.6936 C.2     1  UNL1        0.2300
      9 O         139.8627  139.5931  170.9715 O.2     1  UNL1       -0.2745
     10 C         143.0033  137.8834  170.2238 C.3     1  UNL1        0.0233
     11 C         142.7841  139.3636  170.3288 C.3     1  UNL1        0.0934
     12 C         139.4707  140.8596  168.7371 C.3     1  UNL1        0.1116
     13 C         139.2511  140.2941  167.3652 C.ar    1  UNL1       -0.0130
     14 C         138.7030  138.9071  167.2046 C.ar    1  UNL1       -0.0025
     15 C         138.4835  138.3417  165.8328 C.ar    1  UNL1        0.0180
     16 C         138.8120  139.1632  164.6215 C.ar    1  UNL1        0.1057
     17 C         139.3601  140.5502  164.7821 C.ar    1  UNL1        0.0180
     18 C         139.5797  141.1156  166.1540 C.ar    1  UNL1       -0.0025
     19 S         138.5924  138.5977  163.2496 S.O2    1  UNL1        0.0104
     20 C         138.3728  138.0322  161.8778 C.3     1  UNL1        0.1816
     21 O         137.7729  139.8000  162.8853 O.2     1  UNL1       -0.1686
     22 O         139.4120  137.3954  163.6140 O.2     1  UNL1       -0.1686
     23 C         143.9950  142.3577  164.2609 C.3     1  UNL1        0.0724
     24 C         143.1400  143.2728  163.4354 C.3     1  UNL1        0.0217
     25 C         141.9331  142.7345  162.7259 C.3     1  UNL1        0.0239
     26 C         140.5714  143.2760  163.0459 C.ar    1  UNL1       -0.0202
     27 C         139.4274  143.0315  162.1070 C.ar    1  UNL1       -0.0041
     28 C         138.0656  143.5730  162.4270 C.ar    1  UNL1        0.0020
     29 C         137.8478  144.3589  163.6859 C.ar    1  UNL1        0.0296
     30 C         138.9918  144.6034  164.6248 C.ar    1  UNL1        0.1398
     31 F         138.7740  145.3894  165.8838 F       1  UNL1       -0.2042
     32 C         140.3535  144.0619  164.3048 C.ar    1  UNL1        0.0254
     33 C         142.0879  141.6547  161.6964 C.3     1  UNL1        0.0070
     34 C         141.7739  140.2310  162.0496 C.3     1  UNL1        0.0195
     35 C         141.9287  139.1512  161.0201 C.3     1  UNL1        0.0954
     36 N         142.3975  139.4949  159.6373 N.3     1  UNL1       -0.1594
     37 C         142.7114  140.9185  159.2840 C.3     1  UNL1        0.0954
     38 C         142.5566  141.9984  160.3136 C.3     1  UNL1        0.0195
     39 S         142.5522  138.4151  158.6077 S.O2    1  UNL1        0.0457
     40 C         142.7070  137.3353  157.5781 C.3     1  UNL1        0.1960
     41 O         143.3171  137.5839  159.5946 O.2     1  UNL1       -0.1572
     42 O         141.7874  139.2464  157.6209 O.2     1  UNL1       -0.1572
@<TRIPOS>BOND
     1    10    11    1
     2    11     7    1
     3     7     8   am
     4     8     9    2
     5     8    12    1
     6    12    13    1
     7    13    14   ar
     8    14    15   ar
     9    15    16   ar
    10    16    19    1
    11    19    20    1
    12    19    21    2
    13    19    22    2
    14    16    17   ar
    15    17    18   ar
    16     7     1    1
    17     1     2    1
    18     2     3    1
    19     3     4    1
    20     4    23    1
    21    23    24    1
    22    25    24    1
    23    25    26    1
    24    26    27   ar
    25    27    28   ar
    26    28    29   ar
    27    29    30   ar
    28    30    31    1
    29    30    32   ar
    30    25    33    1
    31    33    34    1
    32    34    35    1
    33    35    36    1
    34    36    39    1
    35    39    40    1
    36    39    41    2
    37    39    42    2
    38    36    37    1
    39    37    38    1
    40     4     5    1
    41     5     6    1
    42    18    13   ar
    43     6     1    1
    44    32    26   ar
    45    38    33    1
@<TRIPOS>MOLECULE
*****
 42 45 0 0 0
SMALL
GASTEIGER

@<TRIPOS>ATOM
      1 C         140.6006  138.2482  161.3007 C.3     1  UNL1        0.0781
      2 C         141.2612  137.5195  162.4332 C.3     1  UNL1        0.0372
      3 C         140.5697  137.4104  163.7598 C.3     1  UNL1        0.0738
      4 N         139.2176  138.0301  163.9540 N.3     1  UNL1       -0.2726
      5 C         138.5569  138.7589  162.8215 C.3     1  UNL1        0.0738
      6 C         139.2484  138.8679  161.4949 C.3     1  UNL1        0.0372
      7 N         141.2920  138.3572  159.9741 N.am    1  UNL1       -0.2808
      8 C         142.7745  138.5787  159.9170 C.2     1  UNL1        0.2300
      9 O         143.4660  138.6878  158.5904 O.2     1  UNL1       -0.2745
     10 C         140.1023  139.4827  157.9573 C.3     1  UNL1        0.0233
     11 C         140.5011  138.2448  158.7046 C.3     1  UNL1        0.0934
     12 C         143.5655  138.6912  161.1865 C.3     1  UNL1        0.1116
     13 C         143.6868  140.0159  161.8798 C.ar    1  UNL1       -0.0130
     14 C         143.0415  141.2339  161.2882 C.ar    1  UNL1       -0.0025
     15 C         143.1629  142.5584  161.9814 C.ar    1  UNL1        0.0180
     16 C         143.9295  142.6650  163.2663 C.ar    1  UNL1        0.1057
     17 C         144.5748  141.4471  163.8579 C.ar    1  UNL1        0.0180
     18 C         144.4535  140.1225  163.1646 C.ar    1  UNL1       -0.0025
     19 S         144.0509  143.9897  163.9596 S.O2    1  UNL1        0.0104
     20 C         144.1722  145.3144  164.6528 C.3     1  UNL1        0.1816
     21 O         144.1473  144.6768  162.6297 O.2     1  UNL1       -0.1686
     22 O         143.9545  143.3027  165.2894 O.2     1  UNL1       -0.1686
     23 C         138.5261  137.9211  165.2806 C.3     1  UNL1        0.0724
     24 C         138.1953  139.1604  166.0581 C.3     1  UNL1        0.0217
     25 C         139.2453  140.2080  166.2819 C.3     1  UNL1        0.0239
     26 C         140.2503  140.0394  167.3825 C.ar    1  UNL1       -0.0202
     27 C         141.6515  139.6124  167.0598 C.ar    1  UNL1       -0.0041
     28 C         142.6566  139.4437  168.1605 C.ar    1  UNL1        0.0020
     29 C         142.2604  139.7021  169.5839 C.ar    1  UNL1        0.0296
     30 C         140.8591  140.1292  169.9067 C.ar    1  UNL1        0.1398
     31 F         140.4629  140.3876  171.3302 F       1  UNL1       -0.2042
     32 C         139.8541  140.2978  168.8061 C.ar    1  UNL1        0.0254
     33 C         139.2902  141.4242  165.4051 C.3     1  UNL1        0.0070
     34 C         138.1241  141.7554  164.5216 C.3     1  UNL1        0.0195
     35 C         138.1690  142.9716  163.6449 C.3     1  UNL1        0.0954
     36 N         139.3801  143.8567  163.6515 N.3     1  UNL1       -0.1594
     37 C         140.5462  143.5255  164.5349 C.3     1  UNL1        0.0954
     38 C         140.5013  142.3092  165.4118 C.3     1  UNL1        0.0195
     39 S         139.4251  145.0729  162.7747 S.O2    1  UNL1        0.0457
     40 C         139.4701  146.2891  161.8979 C.3     1  UNL1        0.1960
     41 O         137.9915  144.8508  162.3932 O.2     1  UNL1       -0.1572
     42 O         140.8586  145.2949  163.1563 O.2     1  UNL1       -0.1572
@<TRIPOS>BOND
     1    10    11    1
     2    11     7    1
     3     7     8   am
     4     8     9    2
     5     8    12    1
     6    12    13    1
     7    13    14   ar
     8    14    15   ar
     9    15    16   ar
    10    16    19    1
    11    19    20    1
    12    19    21    2
    13    19    22    2
    14    16    17   ar
    15    17    18   ar
    16     7     1    1
    17     1     2    1
    18     2     3    1
    19     3     4    1
    20     4    23    1
    21    23    24    1
    22    25    24    1
    23    25    26    1
    24    26    27   ar
    25    27    28   ar
    26    28    29   ar
    27    29    30   ar
    28    30    31    1
    29    30    32   ar
    30    25    33    1
    31    33    34    1
    32    34    35    1
    33    35    36    1
    34    36    39    1
    35    39    40    1
    36    39    41    2
    37    39    42    2
    38    36    37    1
    39    37    38    1
    40     4     5    1
    41     5     6    1
    42    18    13   ar
    43     6     1    1
    44    32    26   ar
    45    38    33    1
@<TRIPOS>MOLECULE
*****
 42 45 0 0 0
SMALL
GASTEIGER

@<TRIPOS>ATOM
      1 C         142.6991  139.3405  159.7333 C.3     1  UNL1        0.0781
      2 C         143.2305  140.6638  159.2681 C.3     1  UNL1        0.0372
      3 C         144.0465  141.5128  160.1972 C.3     1  UNL1        0.0738
      4 N         144.3312  141.0386  161.5914 N.3     1  UNL1       -0.2726
      5 C         143.7998  139.7152  162.0567 C.3     1  UNL1        0.0738
      6 C         142.9837  138.8662  161.1276 C.3     1  UNL1        0.0372
      7 N         141.8830  138.4915  158.8043 N.am    1  UNL1       -0.2808
      8 C         140.4101  138.7374  158.6624 C.2     1  UNL1        0.2300
      9 O         139.5940  137.8884  157.7333 O.2     1  UNL1       -0.2745
     10 C         142.9883  137.6508  156.6085 C.3     1  UNL1        0.0233
     11 C         142.5398  137.3965  158.0171 C.3     1  UNL1        0.0934
     12 C         139.7533  139.8324  159.4495 C.3     1  UNL1        0.1116
     13 C         139.4345  139.6255  160.9006 C.ar    1  UNL1       -0.0130
     14 C         139.0555  138.2622  161.3982 C.ar    1  UNL1       -0.0025
     15 C         138.7367  138.0553  162.8493 C.ar    1  UNL1        0.0180
     16 C         138.7969  139.2117  163.8027 C.ar    1  UNL1        0.1057
     17 C         139.1759  140.5751  163.3051 C.ar    1  UNL1        0.0180
     18 C         139.4947  140.7819  161.8540 C.ar    1  UNL1       -0.0025
     19 S         138.4781  139.0048  165.2538 S.O2    1  UNL1        0.0104
     20 C         138.1593  138.7979  166.7048 C.3     1  UNL1        0.1816
     21 O         138.1465  140.4614  165.3886 O.2     1  UNL1       -0.1686
     22 O         138.8098  137.5482  165.1190 O.2     1  UNL1       -0.1686
     23 C         145.1473  141.8876  162.5205 C.3     1  UNL1        0.0724
     24 C         144.5315  143.0888  163.1745 C.3     1  UNL1        0.0217
     25 C         143.1745  142.9862  163.8055 C.3     1  UNL1        0.0239
     26 C         142.0002  143.6739  163.1747 C.ar    1  UNL1       -0.0202
     27 C         142.0557  144.0815  161.7322 C.ar    1  UNL1       -0.0041
     28 C         140.8812  144.7692  161.1015 C.ar    1  UNL1        0.0020
     29 C         139.6514  145.0494  161.9132 C.ar    1  UNL1        0.0296
     30 C         139.5959  144.6418  163.3557 C.ar    1  UNL1        0.1398
     31 F         138.3660  144.9219  164.1675 F       1  UNL1       -0.2042
     32 C         140.7702  143.9541  163.9865 C.ar    1  UNL1        0.0254
     33 C         142.9919  142.1958  165.0672 C.3     1  UNL1        0.0070
     34 C         142.4082  140.8152  165.0095 C.3     1  UNL1        0.0195
     35 C         142.2256  140.0249  166.2712 C.3     1  UNL1        0.0954
     36 N         142.6267  140.6150  167.5906 N.3     1  UNL1       -0.1594
     37 C         143.2104  141.9956  167.6483 C.3     1  UNL1        0.0954
     38 C         143.3930  142.7860  166.3866 C.3     1  UNL1        0.0195
     39 S         142.4441  139.8247  168.8523 S.O2    1  UNL1        0.0457
     40 C         142.2614  139.0343  170.1141 C.3     1  UNL1        0.1960
     41 O         143.2198  138.6892  168.2533 O.2     1  UNL1       -0.1572
     42 O         141.6684  140.9602  169.4514 O.2     1  UNL1       -0.1572
@<TRIPOS>BOND
     1    10    11    1
     2    11     7    1
     3     7     8   am
     4     8     9    2
     5     8    12    1
     6    12    13    1
     7    13    14   ar
     8    14    15   ar
     9    15    16   ar
    10    16    19    1
    11    19    20    1
    12    19    21    2
    13    19    22    2
    14    16    17   ar
    15    17    18   ar
    16     7     1    1
    17     1     2    1
    18     2     3    1
    19     3     4    1
    20     4    23    1
    21    23    24    1
    22    25    24    1
    23    25    26    1
    24    26    27   ar
    25    27    28   ar
    26    28    29   ar
    27    29    30   ar
    28    30    31    1
    29    30    32   ar
    30    25    33    1
    31    33    34    1
    32    34    35    1
    33    35    36    1
    34    36    39    1
    35    39    40    1
    36    39    41    2
    37    39    42    2
    38    36    37    1
    39    37    38    1
    40     4     5    1
    41     5     6    1
    42    18    13   ar
    43     6     1    1
    44    32    26   ar
    45    38    33    1
@<TRIPOS>MOLECULE
*****
 42 45 0 0 0
SMALL
GASTEIGER

@<TRIPOS>ATOM
      1 C         140.3487  139.7421  167.1304 C.3     1  UNL1        0.0781
      2 C         138.8888  139.4651  166.9256 C.3     1  UNL1        0.0372
      3 C         138.4309  138.7166  165.7090 C.3     1  UNL1        0.0738
      4 N         139.4329  138.2451  164.6972 N.3     1  UNL1       -0.2726
      5 C         140.8929  138.5221  164.9020 C.3     1  UNL1        0.0738
      6 C         141.3508  139.2706  166.1186 C.3     1  UNL1        0.0372
      7 N         140.8066  140.4905  168.3470 N.am    1  UNL1       -0.2808
      8 C         140.9024  141.9872  168.3149 C.2     1  UNL1        0.2300
      9 O         141.3603  142.7356  169.5315 O.2     1  UNL1       -0.2745
     10 C         142.5402  139.1539  169.7463 C.3     1  UNL1        0.0233
     11 C         141.1687  139.7424  169.5957 C.3     1  UNL1        0.0934
     12 C         140.5403  142.7353  167.0663 C.3     1  UNL1        0.1116
     13 C         141.4636  142.7132  165.8843 C.ar    1  UNL1       -0.0130
     14 C         140.9073  142.8245  164.4958 C.ar    1  UNL1       -0.0025
     15 C         141.8306  142.8024  163.3139 C.ar    1  UNL1        0.0180
     16 C         143.3103  142.6690  163.5205 C.ar    1  UNL1        0.1057
     17 C         143.8667  142.5578  164.9090 C.ar    1  UNL1        0.0180
     18 C         142.9433  142.5798  166.0909 C.ar    1  UNL1       -0.0025
     19 S         144.2336  142.6470  162.3385 S.O2    1  UNL1        0.0104
     20 C         145.1569  142.6250  161.1566 C.3     1  UNL1        0.1816
     21 O         143.9158  144.0868  162.0634 O.2     1  UNL1       -0.1686
     22 O         144.5515  141.2071  162.6136 O.2     1  UNL1       -0.1686
     23 C         138.9750  137.4967  163.4806 C.3     1  UNL1        0.0724
     24 C         138.2045  138.2081  162.4082 C.3     1  UNL1        0.0217
     25 C         138.8727  139.2659  161.5808 C.3     1  UNL1        0.0239
     26 C         138.6079  140.7156  161.8606 C.ar    1  UNL1       -0.0202
     27 C         139.0046  141.7577  160.8574 C.ar    1  UNL1       -0.0041
     28 C         138.7398  143.2074  161.1372 C.ar    1  UNL1        0.0020
     29 C         138.0782  143.6149  162.4203 C.ar    1  UNL1        0.0296
     30 C         137.6815  142.5728  163.4235 C.ar    1  UNL1        0.1398
     31 F         137.0199  142.9804  164.7066 F       1  UNL1       -0.2042
     32 C         137.9463  141.1231  163.1437 C.ar    1  UNL1        0.0254
     33 C         139.8057  138.8741  160.4736 C.3     1  UNL1        0.0070
     34 C         141.2642  138.6698  160.7588 C.3     1  UNL1        0.0195
     35 C         142.1972  138.2779  159.6516 C.3     1  UNL1        0.0954
     36 N         141.6718  138.0903  158.2592 N.3     1  UNL1       -0.1594
     37 C         140.2134  138.2946  157.9740 C.3     1  UNL1        0.0954
     38 C         139.2803  138.6865  159.0812 C.3     1  UNL1        0.0195
     39 S         142.6048  137.6985  157.1520 S.O2    1  UNL1        0.0457
     40 C         143.5379  137.3066  156.0448 C.3     1  UNL1        0.1960
     41 O         141.6064  136.6891  156.6679 O.2     1  UNL1       -0.1572
     42 O         143.6032  138.7078  157.6362 O.2     1  UNL1       -0.1572
@<TRIPOS>BOND
     1    10    11    1
     2    11     7    1
     3     7     8   am
     4     8     9    2
     5     8    12    1
     6    12    13    1
     7    13    14   ar
     8    14    15   ar
     9    15    16   ar
    10    16    19    1
    11    19    20    1
    12    19    21    2
    13    19    22    2
    14    16    17   ar
    15    17    18   ar
    16     7     1    1
    17     1     2    1
    18     2     3    1
    19     3     4    1
    20     4    23    1
    21    23    24    1
    22    25    24    1
    23    25    26    1
    24    26    27   ar
    25    27    28   ar
    26    28    29   ar
    27    29    30   ar
    28    30    31    1
    29    30    32   ar
    30    25    33    1
    31    33    34    1
    32    34    35    1
    33    35    36    1
    34    36    39    1
    35    39    40    1
    36    39    41    2
    37    39    42    2
    38    36    37    1
    39    37    38    1
    40     4     5    1
    41     5     6    1
    42    18    13   ar
    43     6     1    1
    44    32    26   ar
    45    38    33    1
@<TRIPOS>MOLECULE
*****
 42 45 0 0 0
SMALL
GASTEIGER

@<TRIPOS>ATOM
      1 C         140.0977  141.4346  166.6708 C.3     1  UNL1        0.0781
      2 C         140.3074  142.9187  166.7289 C.3     1  UNL1        0.0372
      3 C         139.6371  143.8107  165.7264 C.3     1  UNL1        0.0738
      4 N         138.7571  143.2186  164.6657 N.3     1  UNL1       -0.2726
      5 C         138.5475  141.7344  164.6075 C.3     1  UNL1        0.0738
      6 C         139.2178  140.8424  165.6101 C.3     1  UNL1        0.0372
      7 N         140.7680  140.5426  167.6733 N.am    1  UNL1       -0.2808
      8 C         142.2268  140.2218  167.5347 C.2     1  UNL1        0.2300
      9 O         142.8971  139.3298  168.5372 O.2     1  UNL1       -0.2745
     10 C         139.7622  140.7837  170.0565 C.3     1  UNL1        0.0233
     11 C         139.9796  139.9715  168.8144 C.3     1  UNL1        0.0934
     12 C         143.0152  140.7929  166.3935 C.3     1  UNL1        0.1116
     13 C         143.0247  140.0959  165.0653 C.ar    1  UNL1       -0.0130
     14 C         143.9070  140.5980  163.9611 C.ar    1  UNL1       -0.0025
     15 C         143.9164  139.9010  162.6329 C.ar    1  UNL1        0.0180
     16 C         143.0435  138.7018  162.4090 C.ar    1  UNL1        0.1057
     17 C         142.1612  138.1997  163.5132 C.ar    1  UNL1        0.0180
     18 C         142.1518  138.8967  164.8414 C.ar    1  UNL1       -0.0025
     19 S         143.0530  138.0048  161.0808 S.O2    1  UNL1        0.0104
     20 C         143.0624  137.3078  159.7526 C.3     1  UNL1        0.1816
     21 O         141.7251  137.3834  161.3975 O.2     1  UNL1       -0.1686
     22 O         144.3810  138.6262  160.7641 O.2     1  UNL1       -0.1686
     23 C         138.0868  144.1105  163.6632 C.3     1  UNL1        0.0724
     24 C         138.9111  144.8756  162.6706 C.3     1  UNL1        0.0217
     25 C         139.9321  144.1619  161.8350 C.3     1  UNL1        0.0239
     26 C         141.3846  144.2336  162.2022 C.ar    1  UNL1       -0.0202
     27 C         141.8253  145.0839  163.3566 C.ar    1  UNL1       -0.0041
     28 C         143.2780  145.1556  163.7238 C.ar    1  UNL1        0.0020
     29 C         144.2898  144.3769  162.9366 C.ar    1  UNL1        0.0296
     30 C         143.8491  143.5265  161.7822 C.ar    1  UNL1        0.1398
     31 F         144.8611  142.7478  160.9950 F       1  UNL1       -0.2042
     32 C         142.3966  143.4548  161.4150 C.ar    1  UNL1        0.0254
     33 C         139.5005  143.3765  160.6321 C.3     1  UNL1        0.0070
     34 C         139.6741  143.9530  159.2582 C.3     1  UNL1        0.0195
     35 C         139.2425  143.1676  158.0553 C.3     1  UNL1        0.0954
     36 N         138.6373  141.8058  158.2263 N.3     1  UNL1       -0.1594
     37 C         138.4637  141.2293  159.6002 C.3     1  UNL1        0.0954
     38 C         138.8953  142.0147  160.8031 C.3     1  UNL1        0.0195
     39 S         138.2058  141.0204  157.0235 S.O2    1  UNL1        0.0457
     40 C         137.7741  140.2350  155.8206 C.3     1  UNL1        0.1960
     41 O         139.2953  141.6600  156.2149 O.2     1  UNL1       -0.1572
     42 O         137.1162  140.3808  157.8320 O.2     1  UNL1       -0.1572
@<TRIPOS>BOND
     1    10    11    1
     2    11     7    1
     3     7     8   am
     4     8     9    2
     5     8    12    1
     6    12    13    1
     7    13    14   ar
     8    14    15   ar
     9    15    16   ar
    10    16    19    1
    11    19    20    1
    12    19    21    2
    13    19    22    2
    14    16    17   ar
    15    17    18   ar
    16     7     1    1
    17     1     2    1
    18     2     3    1
    19     3     4    1
    20     4    23    1
    21    23    24    1
    22    25    24    1
    23    25    26    1
    24    26    27   ar
    25    27    28   ar
    26    28    29   ar
    27    29    30   ar
    28    30    31    1
    29    30    32   ar
    30    25    33    1
    31    33    34    1
    32    34    35    1
    33    35    36    1
    34    36    39    1
    35    39    40    1
    36    39    41    2
    37    39    42    2
    38    36    37    1
    39    37    38    1
    40     4     5    1
    41     5     6    1
    42    18    13   ar
    43     6     1    1
    44    32    26   ar
    45    38    33    1
@<TRIPOS>MOLECULE
*****
 42 45 0 0 0
SMALL
GASTEIGER

@<TRIPOS>ATOM
      1 C         141.1714  139.7825  166.2756 C.3     1  UNL1        0.0781
      2 C         141.8495  141.1203  166.2940 C.3     1  UNL1        0.0372
      3 C         143.1919  141.2897  165.6466 C.3     1  UNL1        0.0738
      4 N         143.8563  140.1213  164.9808 N.3     1  UNL1       -0.2726
      5 C         143.1782  138.7834  164.9623 C.3     1  UNL1        0.0738
      6 C         141.8358  138.6140  165.6097 C.3     1  UNL1        0.0372
      7 N         139.8290  139.6131  166.9230 N.am    1  UNL1       -0.2808
      8 C         138.7345  138.8848  166.2007 C.2     1  UNL1        0.2300
      9 O         137.3920  138.7154  166.8481 O.2     1  UNL1       -0.2745
     10 C         140.5643  139.9165  169.3963 C.3     1  UNL1        0.0233
     11 C         139.5810  140.1720  168.2927 C.3     1  UNL1        0.0934
     12 C         138.9825  138.3259  164.8310 C.3     1  UNL1        0.1116
     13 C         138.9135  139.2233  163.6310 C.ar    1  UNL1       -0.0130
     14 C         137.8667  140.2949  163.5550 C.ar    1  UNL1       -0.0025
     15 C         137.7978  141.1923  162.3550 C.ar    1  UNL1        0.0180
     16 C         138.7756  141.0179  161.2310 C.ar    1  UNL1        0.1057
     17 C         139.8223  139.9463  161.3069 C.ar    1  UNL1        0.0180
     18 C         139.8913  139.0489  162.5069 C.ar    1  UNL1       -0.0025
     19 S         138.7066  141.9153  160.0310 S.O2    1  UNL1        0.0104
     20 C         138.6377  142.8126  158.8310 C.3     1  UNL1        0.1816
     21 O         139.6539  141.0107  159.3001 O.2     1  UNL1       -0.1686
     22 O         137.7593  142.8199  160.7618 O.2     1  UNL1       -0.1686
     23 C         145.1987  140.2907  164.3333 C.3     1  UNL1        0.0724
     24 C         145.3427  141.1649  163.1230 C.3     1  UNL1        0.0217
     25 C         144.1300  141.5554  162.3313 C.3     1  UNL1        0.0239
     26 C         143.3288  142.7588  162.7311 C.ar    1  UNL1       -0.0202
     27 C         144.0263  144.0182  163.1521 C.ar    1  UNL1       -0.0041
     28 C         143.2251  145.2217  163.5520 C.ar    1  UNL1        0.0020
     29 C         141.7263  145.1656  163.5309 C.ar    1  UNL1        0.0296
     30 C         141.0287  143.9061  163.1099 C.ar    1  UNL1        0.1398
     31 F         139.5299  143.8501  163.0888 F       1  UNL1       -0.2042
     32 C         141.8299  142.7028  162.7100 C.ar    1  UNL1        0.0254
     33 C         143.7185  140.7426  161.1397 C.3     1  UNL1        0.0070
     34 C         143.4695  139.2705  161.2857 C.3     1  UNL1        0.0195
     35 C         143.0580  138.4577  160.0942 C.3     1  UNL1        0.0954
     36 N         142.8954  139.1168  158.7566 N.3     1  UNL1       -0.1594
     37 C         143.1443  140.5887  158.6105 C.3     1  UNL1        0.0954
     38 C         143.5558  141.4017  159.8021 C.3     1  UNL1        0.0195
     39 S         142.4838  138.3039  157.5650 S.O2    1  UNL1        0.0457
     40 C         142.0723  137.4910  156.3734 C.3     1  UNL1        0.1960
     41 O         141.1554  138.0347  158.2075 O.2     1  UNL1       -0.1572
     42 O         143.8123  138.5731  156.9226 O.2     1  UNL1       -0.1572
@<TRIPOS>BOND
     1    10    11    1
     2    11     7    1
     3     7     8   am
     4     8     9    2
     5     8    12    1
     6    12    13    1
     7    13    14   ar
     8    14    15   ar
     9    15    16   ar
    10    16    19    1
    11    19    20    1
    12    19    21    2
    13    19    22    2
    14    16    17   ar
    15    17    18   ar
    16     7     1    1
    17     1     2    1
    18     2     3    1
    19     3     4    1
    20     4    23    1
    21    23    24    1
    22    25    24    1
    23    25    26    1
    24    26    27   ar
    25    27    28   ar
    26    28    29   ar
    27    29    30   ar
    28    30    31    1
    29    30    32   ar
    30    25    33    1
    31    33    34    1
    32    34    35    1
    33    35    36    1
    34    36    39    1
    35    39    40    1
    36    39    41    2
    37    39    42    2
    38    36    37    1
    39    37    38    1
    40     4     5    1
    41     5     6    1
    42    18    13   ar
    43     6     1    1
    44    32    26   ar
    45    38    33    1
@<TRIPOS>MOLECULE
*****
 42 45 0 0 0
SMALL
GASTEIGER

@<TRIPOS>ATOM
      1 C         142.9448  141.8156  166.6792 C.3     1  UNL1        0.0781
      2 C         143.7458  142.9466  166.1055 C.3     1  UNL1        0.0372
      3 C         144.4889  142.7607  164.8159 C.3     1  UNL1        0.0738
      4 N         144.4311  141.4439  164.1000 N.3     1  UNL1       -0.2726
      5 C         143.6301  140.3128  164.6737 C.3     1  UNL1        0.0738
      6 C         142.8869  140.4987  165.9633 C.3     1  UNL1        0.0372
      7 N         142.2016  142.0014  167.9688 N.am    1  UNL1       -0.2808
      8 C         140.8439  142.6392  167.9669 C.2     1  UNL1        0.2300
      9 O         140.1007  142.8251  169.2565 O.2     1  UNL1       -0.2745
     10 C         143.9328  142.3390  169.8763 C.3     1  UNL1        0.0233
     11 C         142.8160  141.5495  169.2604 C.3     1  UNL1        0.0934
     12 C         140.2294  143.0912  166.6753 C.3     1  UNL1        0.1116
     13 C         139.7488  142.0784  165.6785 C.ar    1  UNL1       -0.0130
     14 C         139.8494  142.3655  164.2097 C.ar    1  UNL1       -0.0025
     15 C         139.3688  141.3528  163.2130 C.ar    1  UNL1        0.0180
     16 C         138.7876  140.0531  163.6851 C.ar    1  UNL1        0.1057
     17 C         138.6870  139.7660  165.1539 C.ar    1  UNL1        0.0180
     18 C         139.1676  140.7787  166.1506 C.ar    1  UNL1       -0.0025
     19 S         138.3070  139.0404  162.6883 S.O2    1  UNL1        0.0104
     20 C         137.8264  138.0277  161.6916 C.3     1  UNL1        0.1816
     21 O         138.9447  137.9464  163.4924 O.2     1  UNL1       -0.1686
     22 O         137.6693  140.1343  161.8843 O.2     1  UNL1       -0.1686
     23 C         145.1743  141.2581  162.8103 C.3     1  UNL1        0.0724
     24 C         144.9305  142.1928  161.6628 C.3     1  UNL1        0.0217
     25 C         143.6675  142.0828  160.8612 C.3     1  UNL1        0.0239
     26 C         142.5420  143.0454  161.0990 C.ar    1  UNL1       -0.0202
     27 C         141.3316  143.0177  160.2135 C.ar    1  UNL1       -0.0041
     28 C         140.2061  143.9804  160.4514 C.ar    1  UNL1        0.0020
     29 C         140.2910  144.9708  161.5747 C.ar    1  UNL1        0.0296
     30 C         141.5014  144.9985  162.4602 C.ar    1  UNL1        0.1398
     31 F         141.5863  145.9889  163.5836 F       1  UNL1       -0.2042
     32 C         142.6269  144.0358  162.2224 C.ar    1  UNL1        0.0254
     33 C         143.5299  141.0101  159.8218 C.3     1  UNL1        0.0070
     34 C         144.0268  141.2493  158.4268 C.3     1  UNL1        0.0195
     35 C         143.8892  140.1767  157.3874 C.3     1  UNL1        0.0954
     36 N         143.2547  138.8648  157.7428 N.3     1  UNL1       -0.1594
     37 C         142.7577  138.6256  159.1377 C.3     1  UNL1        0.0954
     38 C         142.8953  139.6983  160.1772 C.3     1  UNL1        0.0195
     39 S         143.1171  137.7922  156.7034 S.O2    1  UNL1        0.0457
     40 C         142.9795  136.7195  155.6639 C.3     1  UNL1        0.1960
     41 O         141.8800  137.2890  157.3864 O.2     1  UNL1       -0.1572
     42 O         144.3541  138.2953  156.0204 O.2     1  UNL1       -0.1572
@<TRIPOS>BOND
     1    10    11    1
     2    11     7    1
     3     7     8   am
     4     8     9    2
     5     8    12    1
     6    12    13    1
     7    13    14   ar
     8    14    15   ar
     9    15    16   ar
    10    16    19    1
    11    19    20    1
    12    19    21    2
    13    19    22    2
    14    16    17   ar
    15    17    18   ar
    16     7     1    1
    17     1     2    1
    18     2     3    1
    19     3     4    1
    20     4    23    1
    21    23    24    1
    22    25    24    1
    23    25    26    1
    24    26    27   ar
    25    27    28   ar
    26    28    29   ar
    27    29    30   ar
    28    30    31    1
    29    30    32   ar
    30    25    33    1
    31    33    34    1
    32    34    35    1
    33    35    36    1
    34    36    39    1
    35    39    40    1
    36    39    41    2
    37    39    42    2
    38    36    37    1
    39    37    38    1
    40     4     5    1
    41     5     6    1
    42    18    13   ar
    43     6     1    1
    44    32    26   ar
    45    38    33    1
@<TRIPOS>MOLECULE
*****
 42 45 0 0 0
SMALL
GASTEIGER

@<TRIPOS>ATOM
      1 C         141.8474  138.4390  159.8077 C.3     1  UNL1        0.0781
      2 C         142.5626  137.9536  161.0336 C.3     1  UNL1        0.0372
      3 C         141.7895  137.6534  162.2835 C.3     1  UNL1        0.0738
      4 N         140.3012  137.8387  162.3075 N.3     1  UNL1       -0.2726
      5 C         139.5859  138.3242  161.0815 C.3     1  UNL1        0.0738
      6 C         140.3590  138.6243  159.8317 C.3     1  UNL1        0.0372
      7 N         142.6205  138.7391  158.5578 N.am    1  UNL1       -0.2808
      8 C         143.6625  139.8182  158.5614 C.2     1  UNL1        0.2300
      9 O         144.4357  140.1183  157.3115 O.2     1  UNL1       -0.2745
     10 C         142.8094  136.5362  157.1936 C.3     1  UNL1        0.0233
     11 C         142.3516  137.9603  157.3044 C.3     1  UNL1        0.0934
     12 C         143.9314  140.5970  159.8148 C.3     1  UNL1        0.1116
     13 C         143.0716  141.7753  160.1646 C.ar    1  UNL1       -0.0130
     14 C         142.5219  142.6515  159.0783 C.ar    1  UNL1       -0.0025
     15 C         141.6622  143.8298  159.4282 C.ar    1  UNL1        0.0180
     16 C         141.3520  144.1318  160.8644 C.ar    1  UNL1        0.1057
     17 C         141.9017  143.2556  161.9507 C.ar    1  UNL1        0.0180
     18 C         142.7615  142.0774  161.6008 C.ar    1  UNL1       -0.0025
     19 S         140.4922  145.3102  161.2142 S.O2    1  UNL1        0.0104
     20 C         139.6324  146.4884  161.5641 C.3     1  UNL1        0.1816
     21 O         141.1109  145.3561  162.5799 O.2     1  UNL1       -0.1686
     22 O         139.8735  145.2642  159.8486 O.2     1  UNL1       -0.1686
     23 C         139.5281  137.5386  163.5574 C.3     1  UNL1        0.0724
     24 C         138.5079  138.5160  164.0611 C.3     1  UNL1        0.0217
     25 C         138.9486  139.8211  164.6546 C.3     1  UNL1        0.0239
     26 C         138.5433  141.1133  164.0096 C.ar    1  UNL1       -0.0202
     27 C         138.1741  142.2926  164.8599 C.ar    1  UNL1       -0.0041
     28 C         137.7688  143.5848  164.2148 C.ar    1  UNL1        0.0020
     29 C         137.7328  143.6976  162.7196 C.ar    1  UNL1        0.0296
     30 C         138.1020  142.5183  161.8693 C.ar    1  UNL1        0.1398
     31 F         138.0659  142.6313  160.3739 F       1  UNL1       -0.2042
     32 C         138.5073  141.2262  162.5143 C.ar    1  UNL1        0.0254
     33 C         139.7946  139.8342  165.8932 C.3     1  UNL1        0.0070
     34 C         139.1455  139.8959  167.2442 C.3     1  UNL1        0.0195
     35 C         139.9915  139.9089  168.4828 C.3     1  UNL1        0.0954
     36 N         141.4865  139.8602  168.3705 N.3     1  UNL1       -0.1594
     37 C         142.1355  139.7985  167.0196 C.3     1  UNL1        0.0954
     38 C         141.2895  139.7854  165.7809 C.3     1  UNL1        0.0195
     39 S         142.3325  139.8732  169.6090 S.O2    1  UNL1        0.0457
     40 C         143.1785  139.8862  170.8477 C.3     1  UNL1        0.1960
     41 O         141.5666  141.0575  170.1197 O.2     1  UNL1       -0.1572
     42 O         143.0984  138.6889  169.0984 O.2     1  UNL1       -0.1572
@<TRIPOS>BOND
     1    10    11    1
     2    11     7    1
     3     7     8   am
     4     8     9    2
     5     8    12    1
     6    12    13    1
     7    13    14   ar
     8    14    15   ar
     9    15    16   ar
    10    16    19    1
    11    19    20    1
    12    19    21    2
    13    19    22    2
    14    16    17   ar
    15    17    18   ar
    16     7     1    1
    17     1     2    1
    18     2     3    1
    19     3     4    1
    20     4    23    1
    21    23    24    1
    22    25    24    1
    23    25    26    1
    24    26    27   ar
    25    27    28   ar
    26    28    29   ar
    27    29    30   ar
    28    30    31    1
    29    30    32   ar
    30    25    33    1
    31    33    34    1
    32    34    35    1
    33    35    36    1
    34    36    39    1
    35    39    40    1
    36    39    41    2
    37    39    42    2
    38    36    37    1
    39    37    38    1
    40     4     5    1
    41     5     6    1
    42    18    13   ar
    43     6     1    1
    44    32    26   ar
    45    38    33    1
