@<TRIPOS>MOLECULE
*****
 43 48 0 0 0
SMALL
GASTEIGER

@<TRIPOS>ATOM
      1 O         141.2229  136.5447  163.5083 O.2     1  UNL1       -0.2616
      2 C         140.8188  137.7828  162.7642 C.2     1  UNL1        0.2903
      3 S         140.9863  138.0213  161.2928 S.3     1  UNL1       -0.0248
      4 C         140.4473  139.3858  160.9801 C.2     1  UNL1        0.0879
      5 C         140.4146  140.0320  159.6268 C.2     1  UNL1        0.0112
      6 C         139.9467  139.9905  162.2582 C.2     1  UNL1        0.2653
      7 O         139.3255  141.3476  162.4075 O.2     1  UNL1       -0.2686
      8 N         140.1763  138.9998  163.3609 N.am    1  UNL1       -0.1954
      9 C         140.9548  139.3010  158.4334 C.ar    1  UNL1        0.0008
     10 C         140.0471  138.4374  157.6087 C.ar    1  UNL1        0.0031
     11 C         140.5872  137.7066  156.4154 C.ar    1  UNL1        0.0375
     12 C         142.0352  137.8393  156.0468 C.ar    1  UNL1        0.1453
     13 C         142.9429  138.7029  156.8715 C.ar    1  UNL1        0.0375
     14 C         142.4027  139.4338  158.0648 C.ar    1  UNL1        0.0031
     15 O         142.5753  137.1084  154.8534 O.3     1  UNL1       -0.4535
     16 C         142.8208  135.6305  154.9270 C.ar    1  UNL1        0.1454
     17 C         143.6565  135.0633  156.0361 C.ar    1  UNL1        0.0398
     18 C         143.9020  133.5853  156.1096 C.ar    1  UNL1        0.0328
     19 C         143.3119  132.6746  155.0741 C.ar    1  UNL1        0.1403
     20 F         143.5574  131.1967  155.1477 F       1  UNL1       -0.2042
     21 C         142.4762  133.2418  153.9651 C.ar    1  UNL1        0.0328
     22 C         142.2307  134.7197  153.8915 C.ar    1  UNL1        0.0398
     23 C         139.8250  139.1924  164.8064 C.ar    1  UNL1        0.0619
     24 C         138.3870  139.2841  165.2230 C.ar    1  UNL1        0.0185
     25 C         138.0358  139.4767  166.6685 C.ar    1  UNL1        0.0382
     26 C         139.1226  139.5776  167.6974 C.ar    1  UNL1        0.1386
     27 C         140.5606  139.4859  167.2808 C.ar    1  UNL1        0.0382
     28 C         140.9119  139.2933  165.8353 C.ar    1  UNL1        0.0185
     29 O         138.7713  139.7701  169.1430 O.3     1  UNL1       -0.4755
     30 C         139.6997  140.5270  170.0460 C.3     1  UNL1        0.2054
     31 C         139.4770  141.9892  170.2952 C.3     1  UNL1        0.0488
     32 C         140.3175  143.0078  169.5838 C.3     1  UNL1        0.0212
     33 C         141.6595  142.6222  169.0358 C.3     1  UNL1        0.0723
     34 N         141.8832  142.5906  167.5529 N.3     1  UNL1       -0.2703
     35 C         143.2310  142.2250  167.0054 C.3     1  UNL1        0.0897
     36 C         143.4548  142.1933  165.5225 C.3     1  UNL1        0.0897
     37 N         142.3306  142.5274  164.5871 N.3     1  UNL1       -0.2703
     38 C         140.9828  142.8930  165.1346 C.3     1  UNL1        0.0897
     39 C         140.7591  142.9246  166.6175 C.3     1  UNL1        0.0897
     40 C         142.5543  142.4957  163.1043 C.3     1  UNL1        0.0721
     41 C         143.3118  141.3591  162.4842 C.3     1  UNL1        0.0160
     42 C         144.0378  140.7680  161.3122 C.3     1  UNL1        0.0014
     43 C         143.8977  139.9818  162.5819 C.3     1  UNL1        0.0014
@<TRIPOS>BOND
     1     1     2    2
     2     2     3    1
     3     3     4    1
     4     4     5    2
     5     5     9    1
     6     9    10   ar
     7    10    11   ar
     8    11    12   ar
     9    12    15    1
    10    15    16    1
    11    16    17   ar
    12    17    18   ar
    13    18    19   ar
    14    19    20    1
    15    19    21   ar
    16    21    22   ar
    17    12    13   ar
    18    13    14   ar
    19     4     6    1
    20     6     7    2
    21     6     8   am
    22     8    23    1
    23    23    24   ar
    24    24    25   ar
    25    25    26   ar
    26    26    29    1
    27    29    30    1
    28    30    31    1
    29    31    32    1
    30    32    33    1
    31    33    34    1
    32    34    35    1
    33    35    36    1
    34    36    37    1
    35    37    40    1
    36    40    41    1
    37    41    42    1
    38    42    43    1
    39    37    38    1
    40    38    39    1
    41    26    27   ar
    42    27    28   ar
    43     8     2   am
    44    28    23   ar
    45    14     9   ar
    46    39    34    1
    47    22    16   ar
    48    43    41    1
@<TRIPOS>MOLECULE
*****
 43 48 0 0 0
SMALL
GASTEIGER

@<TRIPOS>ATOM
      1 O         142.6104  137.7422  160.7222 O.2     1  UNL1       -0.2616
      2 C         141.2566  138.3695  160.8752 C.2     1  UNL1        0.2903
      3 S         140.6165  138.7809  162.1679 S.3     1  UNL1       -0.0248
      4 C         139.2694  139.3612  161.8541 C.2     1  UNL1        0.0879
      5 C         138.2872  139.8997  162.8518 C.2     1  UNL1        0.0112
      6 C         139.0769  139.3086  160.3675 C.2     1  UNL1        0.2653
      7 O         137.8685  139.7852  159.6174 O.2     1  UNL1       -0.2686
      8 N         140.3051  138.6957  159.7625 N.am    1  UNL1       -0.1954
      9 C         138.6202  139.8865  164.3144 C.ar    1  UNL1        0.0008
     10 C         139.3437  141.0476  164.9294 C.ar    1  UNL1        0.0031
     11 C         139.6766  141.0343  166.3919 C.ar    1  UNL1        0.0375
     12 C         139.2861  139.8599  167.2394 C.ar    1  UNL1        0.1453
     13 C         138.5626  138.6988  166.6244 C.ar    1  UNL1        0.0375
     14 C         138.2296  138.7121  165.1619 C.ar    1  UNL1        0.0031
     15 O         139.6190  139.8467  168.7019 O.3     1  UNL1       -0.4535
     16 C         140.5980  140.8382  169.2572 C.ar    1  UNL1        0.1454
     17 C         142.0541  140.4878  169.3418 C.ar    1  UNL1        0.0398
     18 C         143.0331  141.4794  169.8972 C.ar    1  UNL1        0.0328
     19 C         142.5561  142.8213  170.3679 C.ar    1  UNL1        0.1403
     20 F         143.5351  143.8128  170.9232 F       1  UNL1       -0.2042
     21 C         141.1000  143.1717  170.2833 C.ar    1  UNL1        0.0328
     22 C         140.1210  142.1802  169.7280 C.ar    1  UNL1        0.0398
     23 C         140.5403  138.4518  158.3013 C.ar    1  UNL1        0.0619
     24 C         139.5688  137.6243  157.5131 C.ar    1  UNL1        0.0185
     25 C         139.8041  137.3804  156.0519 C.ar    1  UNL1        0.0382
     26 C         141.0110  137.9640  155.3789 C.ar    1  UNL1        0.1386
     27 C         141.9825  138.7915  156.1672 C.ar    1  UNL1        0.0382
     28 C         141.7472  139.0354  157.6284 C.ar    1  UNL1        0.0185
     29 O         141.2463  137.7201  153.9176 O.3     1  UNL1       -0.4755
     30 C         142.3767  136.8380  153.4770 C.3     1  UNL1        0.2054
     31 C         142.6710  135.5687  154.2200 C.3     1  UNL1        0.0488
     32 C         143.7464  135.5437  155.2654 C.3     1  UNL1        0.0212
     33 C         143.4623  134.9657  156.6201 C.3     1  UNL1        0.0723
     34 N         143.5493  133.4839  156.8365 N.3     1  UNL1       -0.2703
     35 C         144.6391  132.9141  157.6954 C.3     1  UNL1        0.0897
     36 C         144.7260  131.4323  157.9119 C.3     1  UNL1        0.0897
     37 N         143.7232  130.5204  157.2694 N.3     1  UNL1       -0.2703
     38 C         142.6334  131.0902  156.4105 C.3     1  UNL1        0.0897
     39 C         142.5464  132.5720  156.1941 C.3     1  UNL1        0.0897
     40 C         143.8101  129.0387  157.4858 C.3     1  UNL1        0.0721
     41 C         143.5482  128.4628  158.8459 C.3     1  UNL1        0.0160
     42 C         142.6722  127.6794  159.7782 C.3     1  UNL1        0.0014
     43 C         143.9703  128.2485  160.2692 C.3     1  UNL1        0.0014
@<TRIPOS>BOND
     1     1     2    2
     2     2     3    1
     3     3     4    1
     4     4     5    2
     5     5     9    1
     6     9    10   ar
     7    10    11   ar
     8    11    12   ar
     9    12    15    1
    10    15    16    1
    11    16    17   ar
    12    17    18   ar
    13    18    19   ar
    14    19    20    1
    15    19    21   ar
    16    21    22   ar
    17    12    13   ar
    18    13    14   ar
    19     4     6    1
    20     6     7    2
    21     6     8   am
    22     8    23    1
    23    23    24   ar
    24    24    25   ar
    25    25    26   ar
    26    26    29    1
    27    29    30    1
    28    30    31    1
    29    31    32    1
    30    32    33    1
    31    33    34    1
    32    34    35    1
    33    35    36    1
    34    36    37    1
    35    37    40    1
    36    40    41    1
    37    41    42    1
    38    42    43    1
    39    37    38    1
    40    38    39    1
    41    26    27   ar
    42    27    28   ar
    43     8     2   am
    44    28    23   ar
    45    14     9   ar
    46    39    34    1
    47    22    16   ar
    48    43    41    1
@<TRIPOS>MOLECULE
*****
 43 48 0 0 0
SMALL
GASTEIGER

@<TRIPOS>ATOM
      1 O         141.0131  136.9116  162.9522 O.2     1  UNL1       -0.2616
      2 C         140.4712  138.1474  162.2971 C.2     1  UNL1        0.2903
      3 S         140.5725  138.4896  160.8402 S.3     1  UNL1       -0.0248
      4 C         139.8968  139.8116  160.6265 C.2     1  UNL1        0.0879
      5 C         139.7635  140.5323  159.3177 C.2     1  UNL1        0.0112
      6 C         139.3780  140.2864  161.9514 C.2     1  UNL1        0.2653
      7 O         138.6346  141.5653  162.2001 O.2     1  UNL1       -0.2686
      8 N         139.7329  139.2579  162.9839 N.am    1  UNL1       -0.1954
      9 C         140.3362  139.9308  158.0686 C.ar    1  UNL1        0.0008
     10 C         139.4582  139.1361  157.1480 C.ar    1  UNL1        0.0031
     11 C         140.0309  138.5347  155.8990 C.ar    1  UNL1        0.0375
     12 C         141.4816  138.7280  155.5704 C.ar    1  UNL1        0.1453
     13 C         142.3597  139.5227  156.4910 C.ar    1  UNL1        0.0375
     14 C         141.7869  140.1241  157.7401 C.ar    1  UNL1        0.0031
     15 O         142.0544  138.1266  154.3213 O.3     1  UNL1       -0.4535
     16 C         142.2327  136.6408  154.2178 C.ar    1  UNL1        0.1454
     17 C         141.7284  135.9072  153.0105 C.ar    1  UNL1        0.0398
     18 C         141.9068  134.4214  152.9071 C.ar    1  UNL1        0.0328
     19 C         142.5895  133.6693  154.0108 C.ar    1  UNL1        0.1403
     20 F         142.7678  132.1836  153.9074 F       1  UNL1       -0.2042
     21 C         143.0938  134.4030  155.2181 C.ar    1  UNL1        0.0328
     22 C         142.9154  135.8887  155.3216 C.ar    1  UNL1        0.0398
     23 C         139.4069  139.3276  164.4463 C.ar    1  UNL1        0.0619
     24 C         139.8901  140.4857  165.2681 C.ar    1  UNL1        0.0185
     25 C         139.5640  140.5554  166.7305 C.ar    1  UNL1        0.0382
     26 C         138.7547  139.4671  167.3712 C.ar    1  UNL1        0.1386
     27 C         138.2715  138.3089  166.5494 C.ar    1  UNL1        0.0382
     28 C         138.5976  138.2392  165.0870 C.ar    1  UNL1        0.0185
     29 O         138.4286  139.5368  168.8337 O.3     1  UNL1       -0.4755
     30 C         139.1419  140.5188  169.7152 C.3     1  UNL1        0.2054
     31 C         140.1222  140.0318  170.7406 C.3     1  UNL1        0.0488
     32 C         141.5954  140.1754  170.4974 C.3     1  UNL1        0.0212
     33 C         142.2600  139.3693  169.4210 C.3     1  UNL1        0.0723
     34 N         142.6656  140.0256  168.1346 N.3     1  UNL1       -0.2703
     35 C         142.7566  141.5205  168.0515 C.3     1  UNL1        0.0897
     36 C         143.1622  142.1768  166.7651 C.3     1  UNL1        0.0897
     37 N         143.4768  141.3381  165.5618 N.3     1  UNL1       -0.2703
     38 C         143.3857  139.8432  165.6450 C.3     1  UNL1        0.0897
     39 C         142.9801  139.1869  166.9314 C.3     1  UNL1        0.0897
     40 C         143.8823  141.9944  164.2755 C.3     1  UNL1        0.0721
     41 C         142.8599  142.7114  163.4444 C.3     1  UNL1        0.0160
     42 C         141.4789  143.2748  163.2848 C.3     1  UNL1        0.0014
     43 C         142.4699  143.3897  162.1647 C.3     1  UNL1        0.0014
@<TRIPOS>BOND
     1     1     2    2
     2     2     3    1
     3     3     4    1
     4     4     5    2
     5     5     9    1
     6     9    10   ar
     7    10    11   ar
     8    11    12   ar
     9    12    15    1
    10    15    16    1
    11    16    17   ar
    12    17    18   ar
    13    18    19   ar
    14    19    20    1
    15    19    21   ar
    16    21    22   ar
    17    12    13   ar
    18    13    14   ar
    19     4     6    1
    20     6     7    2
    21     6     8   am
    22     8    23    1
    23    23    24   ar
    24    24    25   ar
    25    25    26   ar
    26    26    29    1
    27    29    30    1
    28    30    31    1
    29    31    32    1
    30    32    33    1
    31    33    34    1
    32    34    35    1
    33    35    36    1
    34    36    37    1
    35    37    40    1
    36    40    41    1
    37    41    42    1
    38    42    43    1
    39    37    38    1
    40    38    39    1
    41    26    27   ar
    42    27    28   ar
    43     8     2   am
    44    28    23   ar
    45    14     9   ar
    46    39    34    1
    47    22    16   ar
    48    43    41    1
@<TRIPOS>MOLECULE
*****
 43 48 0 0 0
SMALL
GASTEIGER

@<TRIPOS>ATOM
      1 O         139.5955  145.6367  163.0756 O.2     1  UNL1       -0.2616
      2 C         140.4127  144.6942  162.2426 C.2     1  UNL1        0.2903
      3 S         140.5549  144.7337  160.7498 S.3     1  UNL1       -0.0248
      4 C         141.4612  143.6107  160.3406 C.2     1  UNL1        0.0879
      5 C         141.8767  143.2794  158.9379 C.2     1  UNL1        0.0112
      6 C         141.8791  142.8772  161.5805 C.2     1  UNL1        0.2653
      7 O         142.7859  141.6835  161.6353 O.2     1  UNL1       -0.2686
      8 N         141.2311  143.5468  162.7559 N.am    1  UNL1       -0.1954
      9 C         141.3755  144.1075  157.7919 C.ar    1  UNL1        0.0008
     10 C         140.1096  143.7225  157.0855 C.ar    1  UNL1        0.0031
     11 C         139.6085  144.5506  155.9396 C.ar    1  UNL1        0.0375
     12 C         140.3735  145.7637  155.5001 C.ar    1  UNL1        0.1453
     13 C         141.6394  146.1488  156.2064 C.ar    1  UNL1        0.0375
     14 C         142.1405  145.3207  157.3524 C.ar    1  UNL1        0.0031
     15 O         139.8723  146.5918  154.3541 O.3     1  UNL1       -0.4535
     16 C         139.5200  148.0340  154.5686 C.ar    1  UNL1        0.1454
     17 C         139.8994  149.0594  153.5417 C.ar    1  UNL1        0.0398
     18 C         139.5470  150.5017  153.7562 C.ar    1  UNL1        0.0328
     19 C         138.8153  150.9183  154.9975 C.ar    1  UNL1        0.1403
     20 F         138.4629  152.3604  155.2120 F       1  UNL1       -0.2042
     21 C         138.4359  149.8928  156.0244 C.ar    1  UNL1        0.0328
     22 C         138.7882  148.4507  155.8099 C.ar    1  UNL1        0.0398
     23 C         141.3761  143.1403  164.1925 C.ar    1  UNL1        0.0619
     24 C         142.6608  142.5345  164.6745 C.ar    1  UNL1        0.0185
     25 C         142.8058  142.1280  166.1111 C.ar    1  UNL1        0.0382
     26 C         141.6660  142.3275  167.0656 C.ar    1  UNL1        0.1386
     27 C         140.3812  142.9333  166.5836 C.ar    1  UNL1        0.0382
     28 C         140.2363  143.3398  165.1470 C.ar    1  UNL1        0.0185
     29 O         141.8109  141.9210  168.5023 O.3     1  UNL1       -0.4755
     30 C         141.4146  140.5405  168.9348 C.3     1  UNL1        0.2054
     31 C         139.9649  140.1956  169.1064 C.3     1  UNL1        0.0488
     32 C         139.1348  139.8287  167.9121 C.3     1  UNL1        0.0212
     33 C         139.7744  139.1620  166.7304 C.3     1  UNL1        0.0723
     34 N         139.4757  139.6473  165.3429 N.3     1  UNL1       -0.2703
     35 C         140.4806  139.4503  164.2468 C.3     1  UNL1        0.0897
     36 C         140.1819  139.9357  162.8593 C.3     1  UNL1        0.0897
     37 N         138.8782  140.6180  162.5678 N.3     1  UNL1       -0.2703
     38 C         137.8733  140.8150  163.6638 C.3     1  UNL1        0.0897
     39 C         138.1720  140.3297  165.0514 C.3     1  UNL1        0.0897
     40 C         138.5795  141.1033  161.1804 C.3     1  UNL1        0.0721
     41 C         139.2152  140.4333  159.9983 C.3     1  UNL1        0.0160
     42 C         140.4451  140.0116  159.2503 C.3     1  UNL1        0.0014
     43 C         139.0865  139.6946  158.6993 C.3     1  UNL1        0.0014
@<TRIPOS>BOND
     1     1     2    2
     2     2     3    1
     3     3     4    1
     4     4     5    2
     5     5     9    1
     6     9    10   ar
     7    10    11   ar
     8    11    12   ar
     9    12    15    1
    10    15    16    1
    11    16    17   ar
    12    17    18   ar
    13    18    19   ar
    14    19    20    1
    15    19    21   ar
    16    21    22   ar
    17    12    13   ar
    18    13    14   ar
    19     4     6    1
    20     6     7    2
    21     6     8   am
    22     8    23    1
    23    23    24   ar
    24    24    25   ar
    25    25    26   ar
    26    26    29    1
    27    29    30    1
    28    30    31    1
    29    31    32    1
    30    32    33    1
    31    33    34    1
    32    34    35    1
    33    35    36    1
    34    36    37    1
    35    37    40    1
    36    40    41    1
    37    41    42    1
    38    42    43    1
    39    37    38    1
    40    38    39    1
    41    26    27   ar
    42    27    28   ar
    43     8     2   am
    44    28    23   ar
    45    14     9   ar
    46    39    34    1
    47    22    16   ar
    48    43    41    1
@<TRIPOS>MOLECULE
*****
 43 48 0 0 0
SMALL
GASTEIGER

@<TRIPOS>ATOM
      1 O         138.8462  139.1945  158.1334 O.2     1  UNL1       -0.2616
      2 C         140.2986  138.8919  157.9120 C.2     1  UNL1        0.2903
      3 S         140.8493  137.7279  157.1426 S.3     1  UNL1       -0.0248
      4 C         142.3463  137.8166  157.1761 C.2     1  UNL1        0.0879
      5 C         143.3011  136.8554  156.5325 C.2     1  UNL1        0.0112
      6 C         142.7208  139.0354  157.9662 C.2     1  UNL1        0.2653
      7 O         144.1159  139.5070  158.2514 O.2     1  UNL1       -0.2686
      8 N         141.4552  139.7000  158.4210 N.am    1  UNL1       -0.1954
      9 C         142.7768  135.6749  155.7698 C.ar    1  UNL1        0.0008
     10 C         142.5722  134.3625  156.4668 C.ar    1  UNL1        0.0031
     11 C         142.0479  133.1821  155.7041 C.ar    1  UNL1        0.0375
     12 C         141.7282  133.3140  154.2445 C.ar    1  UNL1        0.1453
     13 C         141.9329  134.6264  153.5476 C.ar    1  UNL1        0.0375
     14 C         142.4572  135.8068  154.3102 C.ar    1  UNL1        0.0031
     15 O         141.2039  132.1335  153.4819 O.3     1  UNL1       -0.4535
     16 C         141.0743  130.8010  154.1583 C.ar    1  UNL1        0.1454
     17 C         139.7298  130.3212  154.6186 C.ar    1  UNL1        0.0398
     18 C         139.6002  128.9886  155.2951 C.ar    1  UNL1        0.0328
     19 C         140.8152  128.1360  155.5113 C.ar    1  UNL1        0.1403
     20 F         140.6856  126.8035  156.1878 F       1  UNL1       -0.2042
     21 C         142.1598  128.6159  155.0510 C.ar    1  UNL1        0.0328
     22 C         142.2894  129.9483  154.3746 C.ar    1  UNL1        0.0398
     23 C         141.3627  140.9527  159.2409 C.ar    1  UNL1        0.0619
     24 C         141.0745  140.8676  160.7104 C.ar    1  UNL1        0.0185
     25 C         140.9820  142.1203  161.5303 C.ar    1  UNL1        0.0382
     26 C         141.1775  143.4580  160.8805 C.ar    1  UNL1        0.1386
     27 C         141.4657  143.5431  159.4109 C.ar    1  UNL1        0.0382
     28 C         141.5582  142.2904  158.5910 C.ar    1  UNL1        0.0185
     29 O         141.0849  144.7108  161.7004 O.3     1  UNL1       -0.4755
     30 C         139.8860  144.9517  162.5691 C.3     1  UNL1        0.2054
     31 C         140.0424  145.0268  164.0590 C.3     1  UNL1        0.0488
     32 C         138.8503  144.8342  164.9488 C.3     1  UNL1        0.0212
     33 C         137.7148  143.9613  164.5030 C.3     1  UNL1        0.0723
     34 N         137.9672  142.5265  164.1458 N.3     1  UNL1       -0.2703
     35 C         137.4657  141.9786  162.8426 C.3     1  UNL1        0.0897
     36 C         137.7181  140.5438  162.4854 C.3     1  UNL1        0.0897
     37 N         138.4720  139.6568  163.4314 N.3     1  UNL1       -0.2703
     38 C         138.9735  140.2047  164.7346 C.3     1  UNL1        0.0897
     39 C         138.7211  141.6395  165.0918 C.3     1  UNL1        0.0897
     40 C         138.7244  138.2221  163.0742 C.3     1  UNL1        0.0721
     41 C         140.0980  137.6403  163.2322 C.3     1  UNL1        0.0160
     42 C         141.4745  137.3935  162.6896 C.3     1  UNL1        0.0014
     43 C         141.1005  136.8795  164.0483 C.3     1  UNL1        0.0014
@<TRIPOS>BOND
     1     1     2    2
     2     2     3    1
     3     3     4    1
     4     4     5    2
     5     5     9    1
     6     9    10   ar
     7    10    11   ar
     8    11    12   ar
     9    12    15    1
    10    15    16    1
    11    16    17   ar
    12    17    18   ar
    13    18    19   ar
    14    19    20    1
    15    19    21   ar
    16    21    22   ar
    17    12    13   ar
    18    13    14   ar
    19     4     6    1
    20     6     7    2
    21     6     8   am
    22     8    23    1
    23    23    24   ar
    24    24    25   ar
    25    25    26   ar
    26    26    29    1
    27    29    30    1
    28    30    31    1
    29    31    32    1
    30    32    33    1
    31    33    34    1
    32    34    35    1
    33    35    36    1
    34    36    37    1
    35    37    40    1
    36    40    41    1
    37    41    42    1
    38    42    43    1
    39    37    38    1
    40    38    39    1
    41    26    27   ar
    42    27    28   ar
    43     8     2   am
    44    28    23   ar
    45    14     9   ar
    46    39    34    1
    47    22    16   ar
    48    43    41    1
@<TRIPOS>MOLECULE
*****
 43 48 0 0 0
SMALL
GASTEIGER

@<TRIPOS>ATOM
      1 O         138.5992  137.9561  163.1099 O.2     1  UNL1       -0.2616
      2 C         139.4468  138.9102  162.3217 C.2     1  UNL1        0.2903
      3 S         139.1721  139.3878  160.9266 S.3     1  UNL1       -0.0248
      4 C         140.2734  140.3271  160.5329 C.2     1  UNL1        0.0879
      5 C         140.3976  141.0385  159.2182 C.2     1  UNL1        0.0112
      6 C         141.2287  140.4299  161.6848 C.2     1  UNL1        0.2653
      7 O         142.4760  141.2623  161.7242 O.2     1  UNL1       -0.2686
      8 N         140.7179  139.5543  162.7903 N.am    1  UNL1       -0.1954
      9 C         139.3588  140.8365  158.1551 C.ar    1  UNL1        0.0008
     10 C         138.1387  141.7085  158.1232 C.ar    1  UNL1        0.0031
     11 C         137.1001  141.5064  157.0601 C.ar    1  UNL1        0.0375
     12 C         137.2814  140.4323  156.0288 C.ar    1  UNL1        0.1453
     13 C         138.5015  139.5604  156.0607 C.ar    1  UNL1        0.0375
     14 C         139.5402  139.7624  157.1238 C.ar    1  UNL1        0.0031
     15 O         136.2427  140.2303  154.9657 O.3     1  UNL1       -0.4535
     16 C         134.7888  140.3925  155.2971 C.ar    1  UNL1        0.1454
     17 C         134.1733  139.5732  156.3925 C.ar    1  UNL1        0.0398
     18 C         132.7194  139.7355  156.7239 C.ar    1  UNL1        0.0328
     19 C         131.8810  140.7171  155.9600 C.ar    1  UNL1        0.1403
     20 F         130.4272  140.8793  156.2915 F       1  UNL1       -0.2042
     21 C         132.4965  141.5364  154.8646 C.ar    1  UNL1        0.0328
     22 C         133.9504  141.3742  154.5332 C.ar    1  UNL1        0.0398
     23 C         141.3646  139.3572  164.1293 C.ar    1  UNL1        0.0619
     24 C         140.5766  139.5896  165.3842 C.ar    1  UNL1        0.0185
     25 C         141.2232  139.3926  166.7233 C.ar    1  UNL1        0.0382
     26 C         142.6580  138.9632  166.8073 C.ar    1  UNL1        0.1386
     27 C         143.4461  138.7309  165.5523 C.ar    1  UNL1        0.0382
     28 C         142.7994  138.9279  164.2133 C.ar    1  UNL1        0.0185
     29 O         143.3048  138.7662  168.1463 O.3     1  UNL1       -0.4755
     30 C         142.4735  138.8083  169.3942 C.3     1  UNL1        0.2054
     31 C         142.5796  139.9782  170.3269 C.3     1  UNL1        0.0488
     32 C         143.3931  141.1767  169.9371 C.3     1  UNL1        0.0212
     33 C         142.7086  142.4524  169.5446 C.3     1  UNL1        0.0723
     34 N         142.1806  142.6223  168.1509 N.3     1  UNL1       -0.2703
     35 C         140.7177  142.8668  167.9276 C.3     1  UNL1        0.0897
     36 C         140.1897  143.0367  166.5339 C.3     1  UNL1        0.0897
     37 N         141.1249  142.9620  165.3634 N.3     1  UNL1       -0.2703
     38 C         142.5879  142.7174  165.5866 C.3     1  UNL1        0.0897
     39 C         143.1158  142.5476  166.9804 C.3     1  UNL1        0.0897
     40 C         140.5970  143.1319  163.9697 C.3     1  UNL1        0.0721
     41 C         139.1231  143.0330  163.7088 C.3     1  UNL1        0.0160
     42 C         137.9504  142.2836  163.1491 C.3     1  UNL1        0.0014
     43 C         137.7432  143.6110  163.8163 C.3     1  UNL1        0.0014
@<TRIPOS>BOND
     1     1     2    2
     2     2     3    1
     3     3     4    1
     4     4     5    2
     5     5     9    1
     6     9    10   ar
     7    10    11   ar
     8    11    12   ar
     9    12    15    1
    10    15    16    1
    11    16    17   ar
    12    17    18   ar
    13    18    19   ar
    14    19    20    1
    15    19    21   ar
    16    21    22   ar
    17    12    13   ar
    18    13    14   ar
    19     4     6    1
    20     6     7    2
    21     6     8   am
    22     8    23    1
    23    23    24   ar
    24    24    25   ar
    25    25    26   ar
    26    26    29    1
    27    29    30    1
    28    30    31    1
    29    31    32    1
    30    32    33    1
    31    33    34    1
    32    34    35    1
    33    35    36    1
    34    36    37    1
    35    37    40    1
    36    40    41    1
    37    41    42    1
    38    42    43    1
    39    37    38    1
    40    38    39    1
    41    26    27   ar
    42    27    28   ar
    43     8     2   am
    44    28    23   ar
    45    14     9   ar
    46    39    34    1
    47    22    16   ar
    48    43    41    1
@<TRIPOS>MOLECULE
*****
 43 48 0 0 0
SMALL
GASTEIGER

@<TRIPOS>ATOM
      1 O         140.1084  146.0285  162.1791 O.2     1  UNL1       -0.2616
      2 C         140.0497  144.9245  161.1653 C.2     1  UNL1        0.2903
      3 S         140.0409  145.0955  159.6751 S.3     1  UNL1       -0.0248
      4 C         139.9752  143.7324  159.0525 C.2     1  UNL1        0.0879
      5 C         139.9464  143.4350  157.5825 C.2     1  UNL1        0.0112
      6 C         139.9434  142.7190  160.1579 C.2     1  UNL1        0.2653
      7 O         139.8773  141.2302  159.9874 O.2     1  UNL1       -0.2686
      8 N         139.9895  143.4557  161.4637 N.am    1  UNL1       -0.1954
      9 C         139.9841  144.5584  156.5891 C.ar    1  UNL1        0.0008
     10 C         138.7092  145.0707  155.9876 C.ar    1  UNL1        0.0031
     11 C         138.7469  146.1940  154.9942 C.ar    1  UNL1        0.0375
     12 C         140.0597  146.8050  154.6025 C.ar    1  UNL1        0.1453
     13 C         141.3346  146.2926  155.2041 C.ar    1  UNL1        0.0375
     14 C         141.2969  145.1693  156.1974 C.ar    1  UNL1        0.0031
     15 O         140.0974  147.9283  153.6091 O.3     1  UNL1       -0.4535
     16 C         139.5996  149.2892  153.9966 C.ar    1  UNL1        0.1454
     17 C         139.7264  150.4354  153.0374 C.ar    1  UNL1        0.0398
     18 C         139.2286  151.7963  153.4249 C.ar    1  UNL1        0.0328
     19 C         138.6039  152.0110  154.7716 C.ar    1  UNL1        0.1403
     20 F         138.1061  153.3718  155.1591 F       1  UNL1       -0.2042
     21 C         138.4771  150.8647  155.7308 C.ar    1  UNL1        0.0328
     22 C         138.9749  149.5039  155.3434 C.ar    1  UNL1        0.0398
     23 C         139.9774  142.8330  162.8282 C.ar    1  UNL1        0.0619
     24 C         141.2129  142.1702  163.3611 C.ar    1  UNL1        0.0185
     25 C         141.2008  141.5474  164.7256 C.ar    1  UNL1        0.0382
     26 C         139.9532  141.5876  165.5573 C.ar    1  UNL1        0.1386
     27 C         138.7176  142.2505  165.0244 C.ar    1  UNL1        0.0382
     28 C         138.7296  142.8732  163.6599 C.ar    1  UNL1        0.0185
     29 O         139.9410  140.9648  166.9220 O.3     1  UNL1       -0.4755
     30 C         138.9922  139.8436  167.2263 C.3     1  UNL1        0.2054
     31 C         138.2427  139.1726  166.1137 C.3     1  UNL1        0.0488
     32 C         138.4715  137.7184  165.8256 C.3     1  UNL1        0.0212
     33 C         138.9257  137.2861  164.4630 C.3     1  UNL1        0.0723
     34 N         140.2133  137.8108  163.9000 N.3     1  UNL1       -0.2703
     35 C         141.4427  137.8585  164.7581 C.3     1  UNL1        0.0897
     36 C         142.7303  138.3832  164.1952 C.3     1  UNL1        0.0897
     37 N         142.7884  138.8601  162.7742 N.3     1  UNL1       -0.2703
     38 C         141.5591  138.8124  161.9161 C.3     1  UNL1        0.0897
     39 C         140.2715  138.2877  162.4790 C.3     1  UNL1        0.0897
     40 C         144.0760  139.3848  162.2113 C.3     1  UNL1        0.0721
     41 C         144.8039  140.4938  162.9115 C.3     1  UNL1        0.0160
     42 C         145.2715  141.1427  164.1805 C.3     1  UNL1        0.0014
     43 C         145.5969  141.7657  162.8555 C.3     1  UNL1        0.0014
@<TRIPOS>BOND
     1     1     2    2
     2     2     3    1
     3     3     4    1
     4     4     5    2
     5     5     9    1
     6     9    10   ar
     7    10    11   ar
     8    11    12   ar
     9    12    15    1
    10    15    16    1
    11    16    17   ar
    12    17    18   ar
    13    18    19   ar
    14    19    20    1
    15    19    21   ar
    16    21    22   ar
    17    12    13   ar
    18    13    14   ar
    19     4     6    1
    20     6     7    2
    21     6     8   am
    22     8    23    1
    23    23    24   ar
    24    24    25   ar
    25    25    26   ar
    26    26    29    1
    27    29    30    1
    28    30    31    1
    29    31    32    1
    30    32    33    1
    31    33    34    1
    32    34    35    1
    33    35    36    1
    34    36    37    1
    35    37    40    1
    36    40    41    1
    37    41    42    1
    38    42    43    1
    39    37    38    1
    40    38    39    1
    41    26    27   ar
    42    27    28   ar
    43     8     2   am
    44    28    23   ar
    45    14     9   ar
    46    39    34    1
    47    22    16   ar
    48    43    41    1
@<TRIPOS>MOLECULE
*****
 43 48 0 0 0
SMALL
GASTEIGER

@<TRIPOS>ATOM
      1 O         138.9197  139.1648  158.2195 O.2     1  UNL1       -0.2616
      2 C         140.3518  138.8913  157.8670 C.2     1  UNL1        0.2903
      3 S         140.8523  137.7471  157.0361 S.3     1  UNL1       -0.0248
      4 C         142.3447  137.8626  156.9391 C.2     1  UNL1        0.0879
      5 C         143.2553  136.9268  156.2008 C.2     1  UNL1        0.0112
      6 C         142.7665  139.0782  157.7101 C.2     1  UNL1        0.2653
      7 O         144.1731  139.5714  157.8782 O.2     1  UNL1       -0.2686
      8 N         141.5349  139.7139  158.2836 N.am    1  UNL1       -0.1954
      9 C         142.6859  135.7465  155.4708 C.ar    1  UNL1        0.0008
     10 C         142.3565  135.8547  154.0115 C.ar    1  UNL1        0.0031
     11 C         141.7872  134.6744  153.2816 C.ar    1  UNL1        0.0375
     12 C         141.5473  133.3859  154.0111 C.ar    1  UNL1        0.1453
     13 C         141.8767  133.2777  155.4705 C.ar    1  UNL1        0.0375
     14 C         142.4460  134.4580  156.2003 C.ar    1  UNL1        0.0031
     15 O         140.9780  132.2056  153.2812 O.3     1  UNL1       -0.4535
     16 C         140.9750  130.8530  153.9295 C.ar    1  UNL1        0.1454
     17 C         139.7414  130.3566  154.6237 C.ar    1  UNL1        0.0398
     18 C         139.7385  129.0039  155.2720 C.ar    1  UNL1        0.0328
     19 C         140.9692  128.1476  155.2261 C.ar    1  UNL1        0.1403
     20 F         140.9662  126.7950  155.8743 F       1  UNL1       -0.2042
     21 C         142.2028  128.6439  154.5318 C.ar    1  UNL1        0.0328
     22 C         142.2057  129.9965  153.8835 C.ar    1  UNL1        0.0398
     23 C         141.4936  140.9545  159.1258 C.ar    1  UNL1        0.0619
     24 C         141.7018  142.2982  158.4925 C.ar    1  UNL1        0.0185
     25 C         141.6605  143.5387  159.3346 C.ar    1  UNL1        0.0382
     26 C         141.4111  143.4356  160.8101 C.ar    1  UNL1        0.1386
     27 C         141.2030  142.0918  161.4435 C.ar    1  UNL1        0.0382
     28 C         141.2442  140.8513  160.6013 C.ar    1  UNL1        0.0185
     29 O         141.3699  144.6762  161.6524 O.3     1  UNL1       -0.4755
     30 C         141.9951  144.6781  163.0159 C.3     1  UNL1        0.2054
     31 C         143.4784  144.5090  163.1610 C.3     1  UNL1        0.0488
     32 C         144.0616  144.1073  164.4833 C.3     1  UNL1        0.0212
     33 C         144.7286  142.7723  164.6343 C.3     1  UNL1        0.0723
     34 N         144.0231  141.5264  164.1871 N.3     1  UNL1       -0.2703
     35 C         144.6450  140.6455  163.1444 C.3     1  UNL1        0.0897
     36 C         143.9395  139.3996  162.6972 C.3     1  UNL1        0.0897
     37 N         142.6119  139.0347  163.2926 N.3     1  UNL1       -0.2703
     38 C         141.9900  139.9156  164.3353 C.3     1  UNL1        0.0897
     39 C         142.6955  141.1614  164.7825 C.3     1  UNL1        0.0897
     40 C         141.9064  137.7889  162.8454 C.3     1  UNL1        0.0721
     41 C         140.4210  137.8021  162.6364 C.3     1  UNL1        0.0160
     42 C         139.0305  137.6948  163.1887 C.3     1  UNL1        0.0014
     43 C         139.2389  137.9321  161.7223 C.3     1  UNL1        0.0014
@<TRIPOS>BOND
     1     1     2    2
     2     2     3    1
     3     3     4    1
     4     4     5    2
     5     5     9    1
     6     9    10   ar
     7    10    11   ar
     8    11    12   ar
     9    12    15    1
    10    15    16    1
    11    16    17   ar
    12    17    18   ar
    13    18    19   ar
    14    19    20    1
    15    19    21   ar
    16    21    22   ar
    17    12    13   ar
    18    13    14   ar
    19     4     6    1
    20     6     7    2
    21     6     8   am
    22     8    23    1
    23    23    24   ar
    24    24    25   ar
    25    25    26   ar
    26    26    29    1
    27    29    30    1
    28    30    31    1
    29    31    32    1
    30    32    33    1
    31    33    34    1
    32    34    35    1
    33    35    36    1
    34    36    37    1
    35    37    40    1
    36    40    41    1
    37    41    42    1
    38    42    43    1
    39    37    38    1
    40    38    39    1
    41    26    27   ar
    42    27    28   ar
    43     8     2   am
    44    28    23   ar
    45    14     9   ar
    46    39    34    1
    47    22    16   ar
    48    43    41    1
@<TRIPOS>MOLECULE
*****
 43 48 0 0 0
SMALL
GASTEIGER

@<TRIPOS>ATOM
      1 O         138.1701  143.3097  160.8330 O.2     1  UNL1       -0.2616
      2 C         138.5674  141.8707  160.9788 C.2     1  UNL1        0.2903
      3 S         138.8273  141.1544  162.2709 S.3     1  UNL1       -0.0248
      4 C         139.1951  139.7363  161.9489 C.2     1  UNL1        0.0879
      5 C         139.5357  138.6662  162.9434 C.2     1  UNL1        0.0112
      6 C         139.1626  139.5762  160.4578 C.2     1  UNL1        0.2653
      7 O         139.4650  138.3178  159.6994 O.2     1  UNL1       -0.2686
      8 N         138.7747  140.8953  159.8583 N.am    1  UNL1       -0.1954
      9 C         139.5265  138.9759  164.4111 C.ar    1  UNL1        0.0008
     10 C         138.2881  138.7315  165.2214 C.ar    1  UNL1        0.0031
     11 C         138.2789  139.0412  166.6890 C.ar    1  UNL1        0.0375
     12 C         139.5081  139.5954  167.3463 C.ar    1  UNL1        0.1453
     13 C         140.7465  139.8398  166.5359 C.ar    1  UNL1        0.0375
     14 C         140.7556  139.5301  165.0683 C.ar    1  UNL1        0.0031
     15 O         139.4989  139.9051  168.8140 O.3     1  UNL1       -0.4535
     16 C         140.4981  140.8679  169.3836 C.ar    1  UNL1        0.1454
     17 C         140.2243  142.3423  169.3467 C.ar    1  UNL1        0.0398
     18 C         141.2236  143.3051  169.9164 C.ar    1  UNL1        0.0328
     19 C         142.4965  142.7936  170.5229 C.ar    1  UNL1        0.1403
     20 F         143.4957  143.7565  171.0925 F       1  UNL1       -0.2042
     21 C         142.7703  141.3193  170.5598 C.ar    1  UNL1        0.0328
     22 C         141.7711  140.3564  169.9902 C.ar    1  UNL1        0.0398
     23 C         138.6210  141.1876  158.3951 C.ar    1  UNL1        0.0619
     24 C         137.6243  142.2098  157.9352 C.ar    1  UNL1        0.0185
     25 C         137.4706  142.5022  156.4720 C.ar    1  UNL1        0.0382
     26 C         138.3137  141.7723  155.4688 C.ar    1  UNL1        0.1386
     27 C         139.3105  140.7500  155.9288 C.ar    1  UNL1        0.0382
     28 C         139.4641  140.4577  157.3919 C.ar    1  UNL1        0.0185
     29 O         138.1600  142.0646  154.0055 O.3     1  UNL1       -0.4755
     30 C         138.2995  143.4711  153.5030 C.3     1  UNL1        0.2054
     31 C         139.6190  144.1769  153.6061 C.3     1  UNL1        0.0488
     32 C         140.0829  144.7101  154.9291 C.3     1  UNL1        0.0212
     33 C         141.1423  143.9816  155.7017 C.3     1  UNL1        0.0723
     34 N         141.2095  144.1174  157.1940 N.3     1  UNL1       -0.2703
     35 C         142.0275  143.1516  157.9989 C.3     1  UNL1        0.0897
     36 C         142.0947  143.2875  159.4913 C.3     1  UNL1        0.0897
     37 N         141.3438  144.3893  160.1787 N.3     1  UNL1       -0.2703
     38 C         140.5258  145.3551  159.3737 C.3     1  UNL1        0.0897
     39 C         140.4586  145.2192  157.8814 C.3     1  UNL1        0.0897
     40 C         141.4110  144.5251  161.6709 C.3     1  UNL1        0.0721
     41 C         142.7406  144.5204  162.3653 C.3     1  UNL1        0.0160
     42 C         144.1345  143.9824  162.4989 C.3     1  UNL1        0.0014
     43 C         143.6497  145.0500  163.4343 C.3     1  UNL1        0.0014
@<TRIPOS>BOND
     1     1     2    2
     2     2     3    1
     3     3     4    1
     4     4     5    2
     5     5     9    1
     6     9    10   ar
     7    10    11   ar
     8    11    12   ar
     9    12    15    1
    10    15    16    1
    11    16    17   ar
    12    17    18   ar
    13    18    19   ar
    14    19    20    1
    15    19    21   ar
    16    21    22   ar
    17    12    13   ar
    18    13    14   ar
    19     4     6    1
    20     6     7    2
    21     6     8   am
    22     8    23    1
    23    23    24   ar
    24    24    25   ar
    25    25    26   ar
    26    26    29    1
    27    29    30    1
    28    30    31    1
    29    31    32    1
    30    32    33    1
    31    33    34    1
    32    34    35    1
    33    35    36    1
    34    36    37    1
    35    37    40    1
    36    40    41    1
    37    41    42    1
    38    42    43    1
    39    37    38    1
    40    38    39    1
    41    26    27   ar
    42    27    28   ar
    43     8     2   am
    44    28    23   ar
    45    14     9   ar
    46    39    34    1
    47    22    16   ar
    48    43    41    1
