@<TRIPOS>MOLECULE
*****
 26 28 0 0 0
SMALL
GASTEIGER

@<TRIPOS>ATOM
      1 N         139.2447  143.1079  162.8844 N.3     1  UNL1       -0.2724
      2 C         139.5080  143.7813  164.1985 C.3     1  UNL1        0.0721
      3 C         140.9018  144.2019  164.5596 C.3     1  UNL1        0.0174
      4 C         142.0322  143.9489  163.6066 C.3     1  UNL1        0.0031
      5 C         141.7688  143.2755  162.2925 C.3     1  UNL1        0.0174
      6 C         140.3751  142.8550  161.9313 C.3     1  UNL1        0.0721
      7 C         137.8508  142.6873  162.5232 C.3     1  UNL1        0.0768
      8 C         137.2356  141.4872  163.1799 C.3     1  UNL1        0.0438
      9 C         139.6895  138.3691  163.2559 C.ar    1  UNL1        0.1384
     10 C         139.8611  138.1794  164.7339 C.ar    1  UNL1        0.0369
     11 C         139.1575  139.0923  165.6939 C.ar    1  UNL1        0.0028
     12 C         138.2823  140.1949  165.1759 C.ar    1  UNL1       -0.0040
     13 C         138.1108  140.3846  163.6979 C.ar    1  UNL1       -0.0178
     14 C         138.8144  139.4717  162.7379 C.ar    1  UNL1        0.0327
     15 O         140.3931  137.4562  162.2959 O.3     1  UNL1       -0.4724
     16 C         141.8368  137.6883  161.9614 C.3     1  UNL1        0.2434
     17 F         142.2727  140.1971  162.4775 F       1  UNL1       -0.2302
     18 C         142.2948  139.0456  161.5164 C.3     1  UNL1        0.2403
     19 C         143.4261  144.3695  163.9678 C.3     1  UNL1        0.0048
     20 C         144.2029  143.5928  164.9891 C.3     1  UNL1        0.0264
     21 C         144.1438  142.0940  164.9957 C.ar    1  UNL1       -0.0222
     22 C         145.1122  141.3016  164.1685 C.ar    1  UNL1       -0.0043
     23 C         145.0531  139.8028  164.1750 C.ar    1  UNL1       -0.0003
     24 C         144.0256  139.0964  165.0088 C.ar    1  UNL1       -0.0000
     25 C         143.0572  139.8887  165.8360 C.ar    1  UNL1       -0.0003
     26 C         143.1163  141.3876  165.8294 C.ar    1  UNL1       -0.0043
@<TRIPOS>BOND
     1    17    18    1
     2    18    16    1
     3    16    15    1
     4    15     9    1
     5     9    10   ar
     6    10    11   ar
     7    11    12   ar
     8    12    13   ar
     9    13     8    1
    10     8     7    1
    11     7     1    1
    12     1     2    1
    13     2     3    1
    14     3     4    1
    15     4    19    1
    16    19    20    1
    17    20    21    1
    18    21    22   ar
    19    22    23   ar
    20    23    24   ar
    21    24    25   ar
    22    25    26   ar
    23     4     5    1
    24     5     6    1
    25    13    14   ar
    26    14     9   ar
    27     6     1    1
    28    26    21   ar
@<TRIPOS>MOLECULE
*****
 26 28 0 0 0
SMALL
GASTEIGER

@<TRIPOS>ATOM
      1 N         137.9227  140.5849  161.5987 N.3     1  UNL1       -0.2724
      2 C         138.6972  141.6054  160.8185 C.3     1  UNL1        0.0721
      3 C         138.9146  142.9767  161.3860 C.3     1  UNL1        0.0174
      4 C         138.3576  143.3276  162.7338 C.3     1  UNL1        0.0031
      5 C         137.5831  142.3071  163.5141 C.3     1  UNL1        0.0174
      6 C         137.3657  140.9358  162.9465 C.3     1  UNL1        0.0721
      7 C         137.7053  139.2135  161.0312 C.3     1  UNL1        0.0768
      8 C         138.0064  138.0016  161.8621 C.3     1  UNL1        0.0438
      9 C         141.8625  137.8754  162.7920 C.ar    1  UNL1        0.1384
     10 C         141.7914  137.8213  164.2893 C.ar    1  UNL1        0.0369
     11 C         140.4586  137.8273  164.9776 C.ar    1  UNL1        0.0028
     12 C         139.1969  137.8874  164.1685 C.ar    1  UNL1       -0.0040
     13 C         139.2681  137.9415  162.6712 C.ar    1  UNL1       -0.0178
     14 C         140.6008  137.9355  161.9829 C.ar    1  UNL1        0.0327
     15 O         143.1952  137.8695  162.1037 O.3     1  UNL1       -0.4724
     16 C         143.8775  139.1652  161.7791 C.3     1  UNL1        0.2434
     17 F         145.1171  139.3855  164.0518 F       1  UNL1       -0.2302
     18 C         144.4256  140.0212  162.8822 C.3     1  UNL1        0.2403
     19 C         138.5750  144.6990  163.3014 C.3     1  UNL1        0.0048
     20 C         139.4810  144.8871  164.4819 C.3     1  UNL1        0.0264
     21 C         140.9237  144.4868  164.3915 C.ar    1  UNL1       -0.0222
     22 C         141.9099  145.3856  163.7062 C.ar    1  UNL1       -0.0043
     23 C         143.3526  144.9853  163.6157 C.ar    1  UNL1       -0.0003
     24 C         143.8092  143.6862  164.2105 C.ar    1  UNL1       -0.0000
     25 C         142.8231  142.7874  164.8959 C.ar    1  UNL1       -0.0003
     26 C         141.3803  143.1877  164.9863 C.ar    1  UNL1       -0.0043
@<TRIPOS>BOND
     1    17    18    1
     2    18    16    1
     3    16    15    1
     4    15     9    1
     5     9    10   ar
     6    10    11   ar
     7    11    12   ar
     8    12    13   ar
     9    13     8    1
    10     8     7    1
    11     7     1    1
    12     1     2    1
    13     2     3    1
    14     3     4    1
    15     4    19    1
    16    19    20    1
    17    20    21    1
    18    21    22   ar
    19    22    23   ar
    20    23    24   ar
    21    24    25   ar
    22    25    26   ar
    23     4     5    1
    24     5     6    1
    25    13    14   ar
    26    14     9   ar
    27     6     1    1
    28    26    21   ar
@<TRIPOS>MOLECULE
*****
 26 28 0 0 0
SMALL
GASTEIGER

@<TRIPOS>ATOM
      1 N         138.6213  140.2273  165.6177 N.3     1  UNL1       -0.2724
      2 C         139.6127  141.0828  166.3493 C.3     1  UNL1        0.0721
      3 C         139.7866  142.5229  165.9672 C.3     1  UNL1        0.0174
      4 C         138.9693  143.1073  164.8535 C.3     1  UNL1        0.0031
      5 C         137.9779  142.2518  164.1219 C.3     1  UNL1        0.0174
      6 C         137.8040  140.8118  164.5040 C.3     1  UNL1        0.0721
      7 C         138.4473  138.7872  165.9998 C.3     1  UNL1        0.0768
      8 C         138.9053  137.7037  165.0691 C.3     1  UNL1        0.0438
      9 C         142.7353  138.3781  164.2774 C.ar    1  UNL1        0.1384
     10 C         142.7579  138.1737  162.7916 C.ar    1  UNL1        0.0369
     11 C         141.4963  137.8127  162.0649 C.ar    1  UNL1        0.0028
     12 C         140.2121  137.6560  162.8241 C.ar    1  UNL1       -0.0040
     13 C         140.1895  137.8604  164.3099 C.ar    1  UNL1       -0.0178
     14 C         141.4511  138.2214  165.0366 C.ar    1  UNL1        0.0327
     15 O         143.9969  138.7391  165.0041 O.3     1  UNL1       -0.4724
     16 C         145.0819  139.4929  164.2940 C.3     1  UNL1        0.2434
     17 F         146.0479  141.8997  164.1379 F       1  UNL1       -0.2302
     18 C         144.9001  140.9475  163.9762 C.3     1  UNL1        0.2403
     19 C         139.1433  144.5475  164.4714 C.3     1  UNL1        0.0048
     20 C         139.7816  144.9041  163.1617 C.3     1  UNL1        0.0264
     21 C         141.2502  144.6776  162.9569 C.ar    1  UNL1       -0.0222
     22 C         141.7249  143.8047  161.8332 C.ar    1  UNL1       -0.0043
     23 C         143.1935  143.5782  161.6284 C.ar    1  UNL1       -0.0003
     24 C         144.1874  144.2246  162.5473 C.ar    1  UNL1       -0.0000
     25 C         143.7127  145.0974  163.6710 C.ar    1  UNL1       -0.0003
     26 C         142.2441  145.3239  163.8759 C.ar    1  UNL1       -0.0043
@<TRIPOS>BOND
     1    17    18    1
     2    18    16    1
     3    16    15    1
     4    15     9    1
     5     9    10   ar
     6    10    11   ar
     7    11    12   ar
     8    12    13   ar
     9    13     8    1
    10     8     7    1
    11     7     1    1
    12     1     2    1
    13     2     3    1
    14     3     4    1
    15     4    19    1
    16    19    20    1
    17    20    21    1
    18    21    22   ar
    19    22    23   ar
    20    23    24   ar
    21    24    25   ar
    22    25    26   ar
    23     4     5    1
    24     5     6    1
    25    13    14   ar
    26    14     9   ar
    27     6     1    1
    28    26    21   ar
@<TRIPOS>MOLECULE
*****
 26 28 0 0 0
SMALL
GASTEIGER

@<TRIPOS>ATOM
      1 N         143.9380  142.3558  162.9750 N.3     1  UNL1       -0.2724
      2 C         142.8279  142.3570  161.9662 C.3     1  UNL1        0.0721
      3 C         141.6507  143.2687  162.1476 C.3     1  UNL1        0.0174
      4 C         141.5834  144.1790  163.3379 C.3     1  UNL1        0.0031
      5 C         142.6935  144.1777  164.3467 C.3     1  UNL1        0.0174
      6 C         143.8707  143.2661  164.1653 C.3     1  UNL1        0.0721
      7 C         145.1153  141.4441  162.7936 C.3     1  UNL1        0.0768
      8 C         145.2268  140.1914  163.6110 C.3     1  UNL1        0.0438
      9 C         141.9578  137.9701  163.2509 C.ar    1  UNL1        0.1384
     10 C         141.5255  137.8677  164.6835 C.ar    1  UNL1        0.0369
     11 C         142.3269  138.5398  165.7587 C.ar    1  UNL1        0.0028
     12 C         143.5606  139.3144  165.4012 C.ar    1  UNL1       -0.0040
     13 C         143.9930  139.4168  163.9686 C.ar    1  UNL1       -0.0178
     14 C         143.1916  138.7446  162.8934 C.ar    1  UNL1        0.0327
     15 O         141.1565  137.2979  162.1757 O.3     1  UNL1       -0.4724
     16 C         139.9898  138.0076  161.5553 C.3     1  UNL1        0.2434
     17 F         138.4705  137.2578  163.5250 F       1  UNL1       -0.2302
     18 C         138.6763  138.0649  162.2774 C.3     1  UNL1        0.2403
     19 C         140.4061  145.0906  163.5193 C.3     1  UNL1        0.0048
     20 C         139.2934  144.7030  164.4475 C.3     1  UNL1        0.0264
     21 C         139.0385  143.2561  164.7495 C.ar    1  UNL1       -0.0222
     22 C         139.8103  142.5696  165.8373 C.ar    1  UNL1       -0.0043
     23 C         139.5553  141.1226  166.1393 C.ar    1  UNL1       -0.0003
     24 C         138.5285  140.3621  165.3536 C.ar    1  UNL1       -0.0000
     25 C         137.7567  141.0485  164.2660 C.ar    1  UNL1       -0.0003
     26 C         138.0116  142.4955  163.9639 C.ar    1  UNL1       -0.0043
@<TRIPOS>BOND
     1    17    18    1
     2    18    16    1
     3    16    15    1
     4    15     9    1
     5     9    10   ar
     6    10    11   ar
     7    11    12   ar
     8    12    13   ar
     9    13     8    1
    10     8     7    1
    11     7     1    1
    12     1     2    1
    13     2     3    1
    14     3     4    1
    15     4    19    1
    16    19    20    1
    17    20    21    1
    18    21    22   ar
    19    22    23   ar
    20    23    24   ar
    21    24    25   ar
    22    25    26   ar
    23     4     5    1
    24     5     6    1
    25    13    14   ar
    26    14     9   ar
    27     6     1    1
    28    26    21   ar
@<TRIPOS>MOLECULE
*****
 26 28 0 0 0
SMALL
GASTEIGER

@<TRIPOS>ATOM
      1 N         139.0376  141.7012  164.4753 N.3     1  UNL1       -0.2724
      2 C         139.7880  141.7273  163.1768 C.3     1  UNL1        0.0721
      3 C         140.6358  142.9135  162.8243 C.3     1  UNL1        0.0174
      4 C         140.7331  144.0735  163.7703 C.3     1  UNL1        0.0031
      5 C         139.9827  144.0474  165.0688 C.3     1  UNL1        0.0174
      6 C         139.1349  142.8612  165.4213 C.3     1  UNL1        0.0721
      7 C         138.1897  140.5150  164.8279 C.3     1  UNL1        0.0768
      8 C         138.7599  139.4072  165.6631 C.3     1  UNL1        0.0438
      9 C         140.7628  140.4119  168.9386 C.ar    1  UNL1        0.1384
     10 C         142.1772  140.2367  168.4710 C.ar    1  UNL1        0.0369
     11 C         142.4525  139.7849  167.0674 C.ar    1  UNL1        0.0028
     12 C         141.3135  139.5085  166.1314 C.ar    1  UNL1       -0.0040
     13 C         139.8991  139.6837  166.5990 C.ar    1  UNL1       -0.0178
     14 C         139.6238  140.1355  168.0027 C.ar    1  UNL1        0.0327
     15 O         140.4875  140.8637  170.3422 O.3     1  UNL1       -0.4724
     16 C         140.1103  142.2904  170.6106 C.3     1  UNL1        0.2434
     17 F         140.1036  143.7307  168.4483 F       1  UNL1       -0.2302
     18 C         140.7021  143.3913  169.7812 C.3     1  UNL1        0.2403
     19 C         141.5809  145.2597  163.4177 C.3     1  UNL1        0.0048
     20 C         143.0468  145.2548  163.7356 C.3     1  UNL1        0.0264
     21 C         143.8514  144.0033  163.5452 C.ar    1  UNL1       -0.0222
     22 C         144.2169  143.1591  164.7301 C.ar    1  UNL1       -0.0043
     23 C         145.0214  141.9076  164.5397 C.ar    1  UNL1       -0.0003
     24 C         145.4604  141.5001  163.1645 C.ar    1  UNL1       -0.0000
     25 C         145.0949  142.3441  161.9797 C.ar    1  UNL1       -0.0003
     26 C         144.2904  143.5958  162.1700 C.ar    1  UNL1       -0.0043
@<TRIPOS>BOND
     1    17    18    1
     2    18    16    1
     3    16    15    1
     4    15     9    1
     5     9    10   ar
     6    10    11   ar
     7    11    12   ar
     8    12    13   ar
     9    13     8    1
    10     8     7    1
    11     7     1    1
    12     1     2    1
    13     2     3    1
    14     3     4    1
    15     4    19    1
    16    19    20    1
    17    20    21    1
    18    21    22   ar
    19    22    23   ar
    20    23    24   ar
    21    24    25   ar
    22    25    26   ar
    23     4     5    1
    24     5     6    1
    25    13    14   ar
    26    14     9   ar
    27     6     1    1
    28    26    21   ar
@<TRIPOS>MOLECULE
*****
 26 28 0 0 0
SMALL
GASTEIGER

@<TRIPOS>ATOM
      1 N         143.5671  139.6314  164.1252 N.3     1  UNL1       -0.2724
      2 C         142.6691  139.4867  162.9325 C.3     1  UNL1        0.0721
      3 C         141.1849  139.3779  163.1201 C.3     1  UNL1        0.0174
      4 C         140.5987  139.4137  164.5004 C.3     1  UNL1        0.0031
      5 C         141.4967  139.5583  165.6931 C.3     1  UNL1        0.0174
      6 C         142.9809  139.6672  165.5055 C.3     1  UNL1        0.0721
      7 C         145.0514  139.7403  163.9377 C.3     1  UNL1        0.0768
      8 C         145.7117  141.0870  163.9467 C.3     1  UNL1        0.0438
      9 C         143.5310  143.9193  162.2225 C.ar    1  UNL1        0.1384
     10 C         143.2414  144.8078  163.3958 C.ar    1  UNL1        0.0369
     11 C         143.7753  144.4561  164.7528 C.ar    1  UNL1        0.0028
     12 C         144.5987  143.2159  164.9364 C.ar    1  UNL1       -0.0040
     13 C         144.8883  142.3274  163.7631 C.ar    1  UNL1       -0.0178
     14 C         144.3544  142.6791  162.4062 C.ar    1  UNL1        0.0327
     15 O         142.9971  144.2710  160.8656 O.3     1  UNL1       -0.4724
     16 C         141.5372  144.1004  160.5667 C.3     1  UNL1        0.2434
     17 F         140.4269  142.3016  162.0773 F       1  UNL1       -0.2302
     18 C         140.8913  142.7559  160.7252 C.3     1  UNL1        0.2403
     19 C         139.1144  139.3048  164.6879 C.3     1  UNL1        0.0048
     20 C         138.3599  140.4140  165.3590 C.3     1  UNL1        0.0264
     21 C         138.5165  141.8259  164.8776 C.ar    1  UNL1       -0.0222
     22 C         139.5963  142.6972  165.4478 C.ar    1  UNL1       -0.0043
     23 C         139.7530  144.1092  164.9665 C.ar    1  UNL1       -0.0003
     24 C         138.8300  144.6500  163.9150 C.ar    1  UNL1       -0.0000
     25 C         137.7503  143.7788  163.3449 C.ar    1  UNL1       -0.0003
     26 C         137.5935  142.3667  163.8262 C.ar    1  UNL1       -0.0043
@<TRIPOS>BOND
     1    17    18    1
     2    18    16    1
     3    16    15    1
     4    15     9    1
     5     9    10   ar
     6    10    11   ar
     7    11    12   ar
     8    12    13   ar
     9    13     8    1
    10     8     7    1
    11     7     1    1
    12     1     2    1
    13     2     3    1
    14     3     4    1
    15     4    19    1
    16    19    20    1
    17    20    21    1
    18    21    22   ar
    19    22    23   ar
    20    23    24   ar
    21    24    25   ar
    22    25    26   ar
    23     4     5    1
    24     5     6    1
    25    13    14   ar
    26    14     9   ar
    27     6     1    1
    28    26    21   ar
@<TRIPOS>MOLECULE
*****
 26 28 0 0 0
SMALL
GASTEIGER

@<TRIPOS>ATOM
      1 N         139.0230  139.0539  163.4587 N.3     1  UNL1       -0.2724
      2 C         138.5778  139.4500  164.8352 C.3     1  UNL1        0.0721
      3 C         138.2165  140.8767  165.1250 C.3     1  UNL1        0.0174
      4 C         138.3004  141.9072  164.0383 C.3     1  UNL1        0.0031
      5 C         138.7455  141.5111  162.6618 C.3     1  UNL1        0.0174
      6 C         139.1068  140.0844  162.3720 C.3     1  UNL1        0.0721
      7 C         139.3843  137.6272  163.1688 C.3     1  UNL1        0.0768
      8 C         140.6471  137.0443  163.7306 C.3     1  UNL1        0.0438
      9 C         143.7800  139.3283  162.8830 C.ar    1  UNL1        0.1384
     10 C         144.2830  139.6422  164.2608 C.ar    1  UNL1        0.0369
     11 C         143.5740  139.0901  165.4619 C.ar    1  UNL1        0.0028
     12 C         142.3621  138.2242  165.2852 C.ar    1  UNL1       -0.0040
     13 C         141.8591  137.9103  163.9074 C.ar    1  UNL1       -0.0178
     14 C         142.5680  138.4623  162.7063 C.ar    1  UNL1        0.0327
     15 O         144.4889  139.8803  161.6819 O.3     1  UNL1       -0.4724
     16 C         143.7384  140.7120  160.6844 C.3     1  UNL1        0.2434
     17 F         141.9337  141.9031  162.1249 F       1  UNL1       -0.2302
     18 C         143.0490  141.9696  161.1239 C.3     1  UNL1        0.2403
     19 C         137.9390  143.3340  164.3282 C.3     1  UNL1        0.0048
     20 C         138.8995  144.2148  165.0708 C.3     1  UNL1        0.0264
     21 C         140.3759  144.0670  164.8516 C.ar    1  UNL1       -0.0222
     22 C         141.0903  144.9893  163.9086 C.ar    1  UNL1       -0.0043
     23 C         142.5667  144.8415  163.6894 C.ar    1  UNL1       -0.0003
     24 C         143.3289  143.7712  164.4130 C.ar    1  UNL1       -0.0000
     25 C         142.6147  142.8489  165.3558 C.ar    1  UNL1       -0.0003
     26 C         141.1382  142.9967  165.5752 C.ar    1  UNL1       -0.0043
@<TRIPOS>BOND
     1    17    18    1
     2    18    16    1
     3    16    15    1
     4    15     9    1
     5     9    10   ar
     6    10    11   ar
     7    11    12   ar
     8    12    13   ar
     9    13     8    1
    10     8     7    1
    11     7     1    1
    12     1     2    1
    13     2     3    1
    14     3     4    1
    15     4    19    1
    16    19    20    1
    17    20    21    1
    18    21    22   ar
    19    22    23   ar
    20    23    24   ar
    21    24    25   ar
    22    25    26   ar
    23     4     5    1
    24     5     6    1
    25    13    14   ar
    26    14     9   ar
    27     6     1    1
    28    26    21   ar
@<TRIPOS>MOLECULE
*****
 26 28 0 0 0
SMALL
GASTEIGER

@<TRIPOS>ATOM
      1 N         141.3790  140.2808  166.6430 N.3     1  UNL1       -0.2724
      2 C         141.7375  141.5947  166.0145 C.3     1  UNL1        0.0721
      3 C         142.9587  141.7043  165.1504 C.3     1  UNL1        0.0174
      4 C         143.8213  140.5000  164.9148 C.3     1  UNL1        0.0031
      5 C         143.4628  139.1861  165.5433 C.3     1  UNL1        0.0174
      6 C         142.2416  139.0765  166.4074 C.3     1  UNL1        0.0721
      7 C         140.1577  140.1711  167.5071 C.3     1  UNL1        0.0768
      8 C         138.9369  139.4666  166.9943 C.3     1  UNL1        0.0438
      9 C         137.7464  140.4960  163.3510 C.ar    1  UNL1        0.1384
     10 C         138.1402  139.2778  162.5694 C.ar    1  UNL1        0.0369
     11 C         138.7995  138.1226  163.2627 C.ar    1  UNL1        0.0028
     12 C         139.0650  138.1855  164.7376 C.ar    1  UNL1       -0.0040
     13 C         138.6713  139.4036  165.5193 C.ar    1  UNL1       -0.0178
     14 C         138.0120  140.5589  164.8260 C.ar    1  UNL1        0.0327
     15 O         137.0871  141.6513  162.6577 O.3     1  UNL1       -0.4724
     16 C         137.8781  142.8851  162.3388 C.3     1  UNL1        0.2434
     17 F         137.4827  143.9526  164.6743 F       1  UNL1       -0.2302
     18 C         137.7512  144.1024  163.2061 C.3     1  UNL1        0.2403
     19 C         145.0425  140.6096  164.0507 C.3     1  UNL1        0.0048
     20 C         144.9039  140.6469  162.5576 C.3     1  UNL1        0.0264
     21 C         143.7702  139.9253  161.8915 C.ar    1  UNL1       -0.0222
     22 C         142.5313  140.6746  161.4993 C.ar    1  UNL1       -0.0043
     23 C         141.3976  139.9530  160.8331 C.ar    1  UNL1       -0.0003
     24 C         141.5027  138.4820  160.5591 C.ar    1  UNL1       -0.0000
     25 C         142.7414  137.7326  160.9512 C.ar    1  UNL1       -0.0003
     26 C         143.8753  138.4543  161.6174 C.ar    1  UNL1       -0.0043
@<TRIPOS>BOND
     1    17    18    1
     2    18    16    1
     3    16    15    1
     4    15     9    1
     5     9    10   ar
     6    10    11   ar
     7    11    12   ar
     8    12    13   ar
     9    13     8    1
    10     8     7    1
    11     7     1    1
    12     1     2    1
    13     2     3    1
    14     3     4    1
    15     4    19    1
    16    19    20    1
    17    20    21    1
    18    21    22   ar
    19    22    23   ar
    20    23    24   ar
    21    24    25   ar
    22    25    26   ar
    23     4     5    1
    24     5     6    1
    25    13    14   ar
    26    14     9   ar
    27     6     1    1
    28    26    21   ar
@<TRIPOS>MOLECULE
*****
 26 28 0 0 0
SMALL
GASTEIGER

@<TRIPOS>ATOM
      1 N         139.2533  143.2008  162.7258 N.3     1  UNL1       -0.2724
      2 C         140.4671  142.8179  161.9322 C.3     1  UNL1        0.0721
      3 C         141.8132  143.3598  162.3121 C.3     1  UNL1        0.0174
      4 C         141.9454  144.2846  163.4857 C.3     1  UNL1        0.0031
      5 C         140.7316  144.6675  164.2793 C.3     1  UNL1        0.0174
      6 C         139.3855  144.1256  163.8994 C.3     1  UNL1        0.0721
      7 C         137.9071  142.6589  162.3459 C.3     1  UNL1        0.0768
      8 C         137.2553  141.6075  163.1941 C.3     1  UNL1        0.0438
      9 C         139.5127  139.4041  165.6022 C.ar    1  UNL1        0.1384
     10 C         139.6856  138.1655  164.7740 C.ar    1  UNL1        0.0369
     11 C         139.0483  138.0742  163.4192 C.ar    1  UNL1        0.0028
     12 C         138.2382  139.2215  162.8925 C.ar    1  UNL1       -0.0040
     13 C         138.0654  140.4601  163.7207 C.ar    1  UNL1       -0.0178
     14 C         138.7026  140.5514  165.0755 C.ar    1  UNL1        0.0327
     15 O         140.1500  139.4954  166.9570 O.3     1  UNL1       -0.4724
     16 C         139.7605  140.5981  167.8963 C.3     1  UNL1        0.2434
     17 F         138.3751  140.7131  170.0912 F       1  UNL1       -0.2302
     18 C         139.6273  140.3208  169.3644 C.3     1  UNL1        0.2403
     19 C         143.2916  144.8265  163.8656 C.3     1  UNL1        0.0048
     20 C         144.1520  144.0807  164.8420 C.3     1  UNL1        0.0264
     21 C         144.1982  142.5818  164.8085 C.ar    1  UNL1       -0.0222
     22 C         145.2118  141.8816  163.9526 C.ar    1  UNL1       -0.0043
     23 C         145.2580  140.3827  163.9191 C.ar    1  UNL1       -0.0003
     24 C         144.2906  139.5840  164.7414 C.ar    1  UNL1       -0.0000
     25 C         143.2771  140.2841  165.5972 C.ar    1  UNL1       -0.0003
     26 C         143.2308  141.7830  165.6308 C.ar    1  UNL1       -0.0043
@<TRIPOS>BOND
     1    17    18    1
     2    18    16    1
     3    16    15    1
     4    15     9    1
     5     9    10   ar
     6    10    11   ar
     7    11    12   ar
     8    12    13   ar
     9    13     8    1
    10     8     7    1
    11     7     1    1
    12     1     2    1
    13     2     3    1
    14     3     4    1
    15     4    19    1
    16    19    20    1
    17    20    21    1
    18    21    22   ar
    19    22    23   ar
    20    23    24   ar
    21    24    25   ar
    22    25    26   ar
    23     4     5    1
    24     5     6    1
    25    13    14   ar
    26    14     9   ar
    27     6     1    1
    28    26    21   ar
