@<TRIPOS>MOLECULE
*****
 30 33 0 0 0
SMALL
GASTEIGER

@<TRIPOS>ATOM
      1 N         144.9729  139.2091  163.6210 N.3     1  UNL1       -0.3162
      2 C         144.1423  140.2537  164.3055 C.3     1  UNL1        0.1166
      3 C         143.4869  141.5740  164.5842 C.3     1  UNL1        0.0739
      4 C         142.6153  141.7381  165.7938 C.3     1  UNL1        0.2039
      5 N         142.3989  140.5819  166.7248 N.pl3   1  UNL1       -0.1931
      6 C         143.0542  139.2618  166.4462 C.3     1  UNL1        0.2039
      7 C         143.9259  139.0977  165.2365 C.3     1  UNL1        0.0739
      8 H         145.3960  139.6068  162.7824 H       1  UNL1        0.1192
      9 H         144.3808  138.4200  163.3617 H       1  UNL1        0.1192
     10 C         141.5271  140.7461  167.9344 C.2     1  UNL1        0.3205
     11 N         140.2009  140.0487  168.0034 N.2     1  UNL1        0.0097
     12 C         139.3292  140.2128  169.2129 C.2     1  UNL1        0.4717
     13 N         139.7837  141.0744  170.3537 N.2     1  UNL1        0.0158
     14 C         141.1099  141.7718  170.2847 C.2     1  UNL1        0.3714
     15 N         141.8182  142.6786  171.2470 N.2     1  UNL1       -0.0339
     16 C         143.1277  143.0749  170.6321 C.2     1  UNL1        0.2323
     17 C         143.2287  142.4130  169.2898 C.2     1  UNL1        0.0486
     18 C         141.9816  141.6077  169.0751 C.3     1  UNL1        0.2428
     19 C         144.6471  141.0470  163.1369 C.2     1  UNL1        0.2353
     20 O         146.0447  141.5916  163.1475 O.2     1  UNL1       -0.2737
     21 N         143.7542  141.2957  161.9575 N.am    1  UNL1       -0.2994
     22 H         142.8369  140.9383  161.9505 H       1  UNL1        0.1498
     23 C         144.2590  142.0891  160.7887 C.3     1  UNL1        0.1164
     24 C         143.3441  143.0417  160.0777 C.ar    1  UNL1       -0.0025
     25 C         142.2984  143.7928  160.8472 C.ar    1  UNL1       -0.0018
     26 C         141.3836  144.7454  160.1360 C.ar    1  UNL1        0.0111
     27 C         141.5145  144.9468  158.6554 C.ar    1  UNL1        0.0577
     28 CL        140.5997  145.8993  157.9443 Cl      1  UNL1       -0.0822
     29 C         142.5602  144.1956  157.8859 C.ar    1  UNL1        0.0111
     30 C         143.4750  143.2430  158.5970 C.ar    1  UNL1       -0.0018
@<TRIPOS>BOND
     1     1     2    1
     2     2    19    1
     3    19    20    2
     4    19    21   am
     5    21    23    1
     6    23    24    1
     7    24    25   ar
     8    25    26   ar
     9    26    27   ar
    10    27    28    1
    11    27    29   ar
    12    29    30   ar
    13     2     3    1
    14     3     4    1
    15     4     5    1
    16     5    10    1
    17    10    11    2
    18    11    12    1
    19    12    13    2
    20    13    14    1
    21    14    15    2
    22    15    16    1
    23    16    17    2
    24    17    18    1
    25     5     6    1
    26     6     7    1
    27     7     2    1
    28    30    24   ar
    29    18    10    1
    30    18    14    1
    31     1     8    1
    32     1     9    1
    33    21    22    1
@<TRIPOS>MOLECULE
*****
 30 33 0 0 0
SMALL
GASTEIGER

@<TRIPOS>ATOM
      1 N         143.5784  145.4131  162.8211 N.3     1  UNL1       -0.3162
      2 C         142.7314  144.3037  163.3702 C.3     1  UNL1        0.1166
      3 C         141.5588  143.3881  163.5620 C.3     1  UNL1        0.0739
      4 C         141.6178  142.2996  164.5923 C.3     1  UNL1        0.2039
      5 N         142.8494  142.1267  165.4310 N.pl3   1  UNL1       -0.1931
      6 C         144.0220  143.0423  165.2393 C.3     1  UNL1        0.2039
      7 C         143.9629  144.1308  164.2089 C.3     1  UNL1        0.0739
      8 H         143.0644  145.9026  162.0885 H       1  UNL1        0.1192
      9 H         144.4374  145.0244  162.4320 H       1  UNL1        0.1192
     10 C         142.9083  141.0382  166.4614 C.2     1  UNL1        0.3205
     11 N         143.2227  139.6308  166.0485 N.2     1  UNL1        0.0097
     12 C         143.2817  138.5424  167.0788 C.2     1  UNL1        0.4717
     13 N         143.0263  138.8611  168.5221 N.2     1  UNL1        0.0158
     14 C         142.7119  140.2685  168.9351 C.2     1  UNL1        0.3714
     15 N         142.4172  140.8799  170.2727 N.2     1  UNL1       -0.0339
     16 C         142.1761  142.3463  170.0690 C.2     1  UNL1        0.2323
     17 C         142.3218  142.6412  168.6055 C.2     1  UNL1        0.0486
     18 C         142.6529  141.3570  167.9047 C.3     1  UNL1        0.2428
     19 C         141.7939  144.8619  162.3409 C.2     1  UNL1        0.2353
     20 O         140.5286  145.5437  162.7699 O.2     1  UNL1       -0.2737
     21 N         142.1219  144.7382  160.8824 N.am    1  UNL1       -0.2994
     22 H         142.9524  144.2907  160.6008 H       1  UNL1        0.1498
     23 C         141.1845  145.2964  159.8529 C.3     1  UNL1        0.1164
     24 C         140.2166  144.3909  159.1506 C.ar    1  UNL1       -0.0025
     25 C         140.0019  144.5247  157.6721 C.ar    1  UNL1       -0.0018
     26 C         139.0339  143.6192  156.9698 C.ar    1  UNL1        0.0111
     27 C         138.2807  142.5799  157.7460 C.ar    1  UNL1        0.0577
     28 CL        137.3129  141.6744  157.0438 Cl      1  UNL1       -0.0822
     29 C         138.4954  142.4461  159.2245 C.ar    1  UNL1        0.0111
     30 C         139.4633  143.3516  159.9268 C.ar    1  UNL1       -0.0018
@<TRIPOS>BOND
     1     1     2    1
     2     2    19    1
     3    19    20    2
     4    19    21   am
     5    21    23    1
     6    23    24    1
     7    24    25   ar
     8    25    26   ar
     9    26    27   ar
    10    27    28    1
    11    27    29   ar
    12    29    30   ar
    13     2     3    1
    14     3     4    1
    15     4     5    1
    16     5    10    1
    17    10    11    2
    18    11    12    1
    19    12    13    2
    20    13    14    1
    21    14    15    2
    22    15    16    1
    23    16    17    2
    24    17    18    1
    25     5     6    1
    26     6     7    1
    27     7     2    1
    28    30    24   ar
    29    18    10    1
    30    18    14    1
    31     1     8    1
    32     1     9    1
    33    21    22    1
@<TRIPOS>MOLECULE
*****
 30 33 0 0 0
SMALL
GASTEIGER

@<TRIPOS>ATOM
      1 N         140.6411  140.1868  170.5249 N.3     1  UNL1       -0.3162
      2 C         141.0591  139.8856  169.1163 C.3     1  UNL1        0.1166
      3 C         141.9414  139.5758  167.9434 C.3     1  UNL1        0.0739
      4 C         141.3415  139.3954  166.5805 C.3     1  UNL1        0.2039
      5 N         139.8591  139.5247  166.3904 N.pl3   1  UNL1       -0.1931
      6 C         138.9768  139.8345  167.5632 C.3     1  UNL1        0.2039
      7 C         139.5768  140.0149  168.9262 C.3     1  UNL1        0.0739
      8 H         141.4641  140.2049  171.1273 H       1  UNL1        0.1192
      9 H         139.9975  139.4654  170.8502 H       1  UNL1        0.1192
     10 C         139.2592  139.3443  165.0275 C.2     1  UNL1        0.3205
     11 N         139.3716  138.0224  164.3276 N.2     1  UNL1        0.0097
     12 C         138.7717  137.8419  162.9648 C.2     1  UNL1        0.4717
     13 N         138.0594  138.9834  162.3017 N.2     1  UNL1        0.0158
     14 C         137.9470  140.3054  163.0015 C.2     1  UNL1        0.3714
     15 N         137.3088  141.6022  162.6006 N.2     1  UNL1       -0.0339
     16 C         137.5143  142.5842  163.7157 C.2     1  UNL1        0.2323
     17 C         138.2795  141.8942  164.8058 C.2     1  UNL1        0.0486
     18 C         138.5469  140.4858  164.3645 C.3     1  UNL1        0.2428
     19 C         142.3962  139.8608  169.7955 C.2     1  UNL1        0.2353
     20 O         143.2358  141.1029  169.8445 O.2     1  UNL1       -0.2737
     21 N         142.8938  138.5939  170.4258 N.am    1  UNL1       -0.2994
     22 H         142.3427  137.7787  170.3937 H       1  UNL1        0.1498
     23 C         144.2310  138.5690  171.1051 C.3     1  UNL1        0.1164
     24 C         144.7591  137.2858  171.6747 C.ar    1  UNL1       -0.0025
     25 C         144.1281  135.9797  171.2925 C.ar    1  UNL1       -0.0018
     26 C         144.6562  134.6965  171.8622 C.ar    1  UNL1        0.0111
     27 C         145.8153  134.7193  172.8140 C.ar    1  UNL1        0.0577
     28 CL        146.3434  133.4362  173.3836 Cl      1  UNL1       -0.0822
     29 C         146.4463  136.0254  173.1962 C.ar    1  UNL1        0.0111
     30 C         145.9182  137.3086  172.6266 C.ar    1  UNL1       -0.0018
@<TRIPOS>BOND
     1     1     2    1
     2     2    19    1
     3    19    20    2
     4    19    21   am
     5    21    23    1
     6    23    24    1
     7    24    25   ar
     8    25    26   ar
     9    26    27   ar
    10    27    28    1
    11    27    29   ar
    12    29    30   ar
    13     2     3    1
    14     3     4    1
    15     4     5    1
    16     5    10    1
    17    10    11    2
    18    11    12    1
    19    12    13    2
    20    13    14    1
    21    14    15    2
    22    15    16    1
    23    16    17    2
    24    17    18    1
    25     5     6    1
    26     6     7    1
    27     7     2    1
    28    30    24   ar
    29    18    10    1
    30    18    14    1
    31     1     8    1
    32     1     9    1
    33    21    22    1
@<TRIPOS>MOLECULE
*****
 30 33 0 0 0
SMALL
GASTEIGER

@<TRIPOS>ATOM
      1 N         141.0912  145.9671  162.8694 N.3     1  UNL1       -0.3162
      2 C         140.5340  144.6533  162.4075 C.3     1  UNL1        0.1166
      3 C         139.9447  143.6120  161.5029 C.3     1  UNL1        0.0739
      4 C         139.6414  142.2422  162.0335 C.3     1  UNL1        0.2039
      5 N         139.9274  141.9137  163.4690 N.pl3   1  UNL1       -0.1931
      6 C         140.5167  142.9550  164.3737 C.3     1  UNL1        0.2039
      7 C         140.8200  144.3248  163.8429 C.3     1  UNL1        0.0739
      8 H         141.0943  146.6273  162.0919 H       1  UNL1        0.1192
      9 H         142.0449  145.8328  163.2052 H       1  UNL1        0.1192
     10 C         139.6240  140.5439  163.9997 C.2     1  UNL1        0.3205
     11 N         138.6167  140.3710  165.0975 N.2     1  UNL1        0.0097
     12 C         138.3134  139.0013  165.6282 C.2     1  UNL1        0.4717
     13 N         139.0174  137.8043  165.0610 N.2     1  UNL1        0.0158
     14 C         140.0247  137.9771  163.9631 C.2     1  UNL1        0.3714
     15 N         140.8706  136.9915  163.2128 N.2     1  UNL1       -0.0339
     16 C         141.6967  137.7522  162.2184 C.2     1  UNL1        0.2323
     17 C         141.3614  139.2079  162.3541 C.2     1  UNL1        0.0486
     18 C         140.3280  139.3470  163.4324 C.3     1  UNL1        0.2428
     19 C         140.4416  145.4381  161.1326 C.2     1  UNL1        0.2353
     20 O         139.3587  146.4614  160.9585 O.2     1  UNL1       -0.2737
     21 N         141.4320  145.1994  160.0316 N.am    1  UNL1       -0.2994
     22 H         142.1427  144.5278  160.1459 H       1  UNL1        0.1498
     23 C         141.3396  145.9841  158.7565 C.3     1  UNL1        0.1164
     24 C         140.3542  145.5833  157.6990 C.ar    1  UNL1       -0.0025
     25 C         139.8750  144.1641  157.6195 C.ar    1  UNL1       -0.0018
     26 C         138.8897  143.7634  156.5619 C.ar    1  UNL1        0.0111
     27 C         138.3835  144.7817  155.5838 C.ar    1  UNL1        0.0577
     28 CL        137.3982  144.3810  154.5263 Cl      1  UNL1       -0.0822
     29 C         138.8627  146.2009  155.6633 C.ar    1  UNL1        0.0111
     30 C         139.8481  146.6017  156.7208 C.ar    1  UNL1       -0.0018
@<TRIPOS>BOND
     1     1     2    1
     2     2    19    1
     3    19    20    2
     4    19    21   am
     5    21    23    1
     6    23    24    1
     7    24    25   ar
     8    25    26   ar
     9    26    27   ar
    10    27    28    1
    11    27    29   ar
    12    29    30   ar
    13     2     3    1
    14     3     4    1
    15     4     5    1
    16     5    10    1
    17    10    11    2
    18    11    12    1
    19    12    13    2
    20    13    14    1
    21    14    15    2
    22    15    16    1
    23    16    17    2
    24    17    18    1
    25     5     6    1
    26     6     7    1
    27     7     2    1
    28    30    24   ar
    29    18    10    1
    30    18    14    1
    31     1     8    1
    32     1     9    1
    33    21    22    1
@<TRIPOS>MOLECULE
*****
 30 33 0 0 0
SMALL
GASTEIGER

@<TRIPOS>ATOM
      1 N         140.6726  146.0771  162.8358 N.3     1  UNL1       -0.3162
      2 C         140.6553  144.5794  162.9155 C.3     1  UNL1        0.1166
      3 C         140.8499  143.1446  162.5236 C.3     1  UNL1        0.0739
      4 C         140.4402  142.0486  163.4620 C.3     1  UNL1        0.2039
      5 N         139.8358  142.3873  164.7925 N.pl3   1  UNL1       -0.1931
      6 C         139.6411  143.8220  165.1844 C.3     1  UNL1        0.2039
      7 C         140.0509  144.9181  164.2459 C.3     1  UNL1        0.0739
      8 H         141.0719  146.3655  161.9426 H       1  UNL1        0.1192
      9 H         141.2379  146.4517  163.5977 H       1  UNL1        0.1192
     10 C         139.4261  141.2912  165.7309 C.2     1  UNL1        0.3205
     11 N         138.3750  140.3040  165.3178 N.2     1  UNL1        0.0097
     12 C         137.9653  139.2079  166.2562 C.2     1  UNL1        0.4717
     13 N         138.6066  139.0990  167.6079 N.2     1  UNL1        0.0158
     14 C         139.6577  140.0861  168.0210 C.2     1  UNL1        0.3714
     15 N         140.4604  140.2296  169.2800 N.2     1  UNL1       -0.0339
     16 C         141.3662  141.4144  169.1196 C.2     1  UNL1        0.2323
     17 C         141.1233  142.0032  167.7615 C.2     1  UNL1        0.0486
     18 C         140.0674  141.1822  167.0825 C.3     1  UNL1        0.2428
     19 C         141.2657  144.7609  161.5574 C.2     1  UNL1        0.2353
     20 O         142.6974  144.3807  161.3217 O.2     1  UNL1       -0.2737
     21 N         140.4442  145.3225  160.4350 N.am    1  UNL1       -0.2994
     22 H         139.5045  145.5720  160.5897 H       1  UNL1        0.1498
     23 C         141.0546  145.5040  159.0768 C.3     1  UNL1        0.1164
     24 C         140.2463  145.2151  157.8467 C.ar    1  UNL1       -0.0025
     25 C         140.0454  146.2835  156.8132 C.ar    1  UNL1       -0.0018
     26 C         139.2371  145.9945  155.5831 C.ar    1  UNL1        0.0111
     27 C         138.6297  144.6373  155.3864 C.ar    1  UNL1        0.0577
     28 CL        137.8214  144.3483  154.1564 Cl      1  UNL1       -0.0822
     29 C         138.8305  143.5689  156.4199 C.ar    1  UNL1        0.0111
     30 C         139.6388  143.8577  157.6500 C.ar    1  UNL1       -0.0018
@<TRIPOS>BOND
     1     1     2    1
     2     2    19    1
     3    19    20    2
     4    19    21   am
     5    21    23    1
     6    23    24    1
     7    24    25   ar
     8    25    26   ar
     9    26    27   ar
    10    27    28    1
    11    27    29   ar
    12    29    30   ar
    13     2     3    1
    14     3     4    1
    15     4     5    1
    16     5    10    1
    17    10    11    2
    18    11    12    1
    19    12    13    2
    20    13    14    1
    21    14    15    2
    22    15    16    1
    23    16    17    2
    24    17    18    1
    25     5     6    1
    26     6     7    1
    27     7     2    1
    28    30    24   ar
    29    18    10    1
    30    18    14    1
    31     1     8    1
    32     1     9    1
    33    21    22    1
@<TRIPOS>MOLECULE
*****
 30 33 0 0 0
SMALL
GASTEIGER

@<TRIPOS>ATOM
      1 N         140.1639  137.5211  162.3321 N.3     1  UNL1       -0.3162
      2 C         139.2029  138.6030  161.9375 C.3     1  UNL1        0.1166
      3 C         138.1382  139.6534  162.0524 C.3     1  UNL1        0.0739
      4 C         137.7059  140.4191  160.8372 C.3     1  UNL1        0.2039
      5 N         138.3383  140.1346  159.5071 N.pl3   1  UNL1       -0.1931
      6 C         139.4031  139.0843  159.3922 C.3     1  UNL1        0.2039
      7 C         139.8353  138.3185  160.6074 C.3     1  UNL1        0.0739
      8 H         140.0787  137.3388  163.3321 H       1  UNL1        0.1192
      9 H         141.1164  137.8186  162.1208 H       1  UNL1        0.1192
     10 C         137.9060  140.9004  158.2919 C.2     1  UNL1        0.3205
     11 N         136.7957  140.3758  157.4305 N.2     1  UNL1        0.0097
     12 C         136.3633  141.1415  156.2154 C.2     1  UNL1        0.4717
     13 N         137.0413  142.4320  155.8616 N.2     1  UNL1        0.0158
     14 C         138.1516  142.9566  156.7229 C.2     1  UNL1        0.3714
     15 N         138.9999  144.1899  156.6261 N.2     1  UNL1       -0.0339
     16 C         139.9565  144.1863  157.7814 C.2     1  UNL1        0.2323
     17 C         139.6994  142.9508  158.5923 C.2     1  UNL1        0.0486
     18 C         138.5839  142.1908  157.9381 C.3     1  UNL1        0.2428
     19 C         138.9042  138.5118  163.4046 C.2     1  UNL1        0.2353
     20 O         138.8015  137.1701  164.0672 O.2     1  UNL1       -0.2737
     21 N         138.7082  139.7626  164.2092 N.am    1  UNL1       -0.2994
     22 H         138.7756  140.6433  163.7743 H       1  UNL1        0.1498
     23 C         138.4095  139.6715  165.6763 C.3     1  UNL1        0.1164
     24 C         139.5215  139.7856  166.6766 C.ar    1  UNL1       -0.0025
     25 C         140.9492  139.7571  166.2175 C.ar    1  UNL1       -0.0018
     26 C         142.0611  139.8713  167.2178 C.ar    1  UNL1        0.0111
     27 C         141.7454  140.0138  168.6772 C.ar    1  UNL1        0.0577
     28 CL        142.8572  140.1280  169.6775 Cl      1  UNL1       -0.0822
     29 C         140.3177  140.0423  169.1363 C.ar    1  UNL1        0.0111
     30 C         139.2057  139.9282  168.1361 C.ar    1  UNL1       -0.0018
@<TRIPOS>BOND
     1     1     2    1
     2     2    19    1
     3    19    20    2
     4    19    21   am
     5    21    23    1
     6    23    24    1
     7    24    25   ar
     8    25    26   ar
     9    26    27   ar
    10    27    28    1
    11    27    29   ar
    12    29    30   ar
    13     2     3    1
    14     3     4    1
    15     4     5    1
    16     5    10    1
    17    10    11    2
    18    11    12    1
    19    12    13    2
    20    13    14    1
    21    14    15    2
    22    15    16    1
    23    16    17    2
    24    17    18    1
    25     5     6    1
    26     6     7    1
    27     7     2    1
    28    30    24   ar
    29    18    10    1
    30    18    14    1
    31     1     8    1
    32     1     9    1
    33    21    22    1
@<TRIPOS>MOLECULE
*****
 30 33 0 0 0
SMALL
GASTEIGER

@<TRIPOS>ATOM
      1 N         140.7357  139.5594  170.7593 N.3     1  UNL1       -0.3162
      2 C         141.0900  139.9019  169.3427 C.3     1  UNL1        0.1166
      3 C         141.9209  140.2189  168.1346 C.3     1  UNL1        0.0739
      4 C         141.2565  140.4906  166.8177 C.3     1  UNL1        0.2039
      5 N         139.7610  140.4453  166.7085 N.pl3   1  UNL1       -0.1931
      6 C         138.9301  140.1284  167.9165 C.3     1  UNL1        0.2039
      7 C         139.5947  139.8567  169.2335 C.3     1  UNL1        0.0739
      8 H         141.5888  139.4724  171.3117 H       1  UNL1        0.1192
      9 H         140.2268  138.6756  170.7784 H       1  UNL1        0.1192
     10 C         139.0966  140.7170  165.3914 C.2     1  UNL1        0.3205
     11 N         138.6137  142.0994  165.0661 N.2     1  UNL1        0.0097
     12 C         137.9493  142.3711  163.7491 C.2     1  UNL1        0.4717
     13 N         137.7678  141.2605  162.7572 N.2     1  UNL1        0.0158
     14 C         138.2507  139.8781  163.0826 C.2     1  UNL1        0.3714
     15 N         138.2108  138.5932  162.3097 N.2     1  UNL1       -0.0339
     16 C         138.8506  137.5274  163.1491 C.2     1  UNL1        0.2323
     17 C         139.2859  138.1535  164.4408 C.2     1  UNL1        0.0486
     18 C         138.9151  139.6064  164.3997 C.3     1  UNL1        0.2428
     19 C         142.4623  139.8282  169.9437 C.2     1  UNL1        0.2353
     20 O         143.3461  141.0401  169.9462 O.2     1  UNL1       -0.2737
     21 N         142.9507  138.5424  170.5424 N.am    1  UNL1       -0.2994
     22 H         142.3706  137.7470  170.5407 H       1  UNL1        0.1498
     23 C         144.3231  138.4686  171.1435 C.3     1  UNL1        0.1164
     24 C         144.8196  137.1772  171.7228 C.ar    1  UNL1       -0.0025
     25 C         145.9278  137.1856  172.7336 C.ar    1  UNL1       -0.0018
     26 C         146.4243  135.8941  173.3130 C.ar    1  UNL1        0.0111
     27 C         145.8126  134.5943  172.8816 C.ar    1  UNL1        0.0577
     28 CL        146.3090  133.3029  173.4609 Cl      1  UNL1       -0.0822
     29 C         144.7044  134.5859  171.8708 C.ar    1  UNL1        0.0111
     30 C         144.2078  135.8773  171.2914 C.ar    1  UNL1       -0.0018
@<TRIPOS>BOND
     1     1     2    1
     2     2    19    1
     3    19    20    2
     4    19    21   am
     5    21    23    1
     6    23    24    1
     7    24    25   ar
     8    25    26   ar
     9    26    27   ar
    10    27    28    1
    11    27    29   ar
    12    29    30   ar
    13     2     3    1
    14     3     4    1
    15     4     5    1
    16     5    10    1
    17    10    11    2
    18    11    12    1
    19    12    13    2
    20    13    14    1
    21    14    15    2
    22    15    16    1
    23    16    17    2
    24    17    18    1
    25     5     6    1
    26     6     7    1
    27     7     2    1
    28    30    24   ar
    29    18    10    1
    30    18    14    1
    31     1     8    1
    32     1     9    1
    33    21    22    1
@<TRIPOS>MOLECULE
*****
 30 33 0 0 0
SMALL
GASTEIGER

@<TRIPOS>ATOM
      1 N         140.3935  146.3994  162.4012 N.3     1  UNL1       -0.3162
      2 C         140.6485  144.9704  162.0232 C.3     1  UNL1        0.1166
      3 C         140.8735  143.7562  161.1716 C.3     1  UNL1        0.0739
      4 C         141.0962  142.4197  161.8149 C.3     1  UNL1        0.2039
      5 N         141.0939  142.2973  163.3100 N.pl3   1  UNL1       -0.1931
      6 C         140.8689  143.5114  164.1616 C.3     1  UNL1        0.2039
      7 C         140.6462  144.8480  163.5181 C.3     1  UNL1        0.0739
      8 H         140.3084  146.9646  161.5563 H       1  UNL1        0.1192
      9 H         141.1698  146.7456  162.9651 H       1  UNL1        0.1192
     10 C         141.3167  140.9607  163.9534 C.2     1  UNL1        0.3205
     11 N         142.6650  140.3078  163.8788 N.2     1  UNL1        0.0097
     12 C         142.8878  138.9712  164.5221 C.2     1  UNL1        0.4717
     13 N         141.7621  138.2875  165.2401 N.2     1  UNL1        0.0158
     14 C         140.4137  138.9403  165.3146 C.2     1  UNL1        0.3714
     15 N         139.1241  138.5104  165.9486 N.2     1  UNL1       -0.0339
     16 C         138.1043  139.5812  165.6970 C.2     1  UNL1        0.2323
     17 C         138.7637  140.6730  164.9076 C.2     1  UNL1        0.0486
     18 C         140.1910  140.2769  164.6713 C.3     1  UNL1        0.2428
     19 C         140.5623  145.5891  160.6594 C.2     1  UNL1        0.2353
     20 O         139.4196  146.4996  160.3197 O.2     1  UNL1       -0.2737
     21 N         141.6188  145.2972  159.6354 N.am    1  UNL1       -0.2994
     22 H         142.3687  144.6997  159.8584 H       1  UNL1        0.1498
     23 C         141.5326  145.9159  158.2716 C.3     1  UNL1        0.1164
     24 C         140.4220  145.5280  157.3409 C.ar    1  UNL1       -0.0025
     25 C         139.9505  144.1050  157.2877 C.ar    1  UNL1       -0.0018
     26 C         138.8399  143.7173  156.3571 C.ar    1  UNL1        0.0111
     27 C         138.2008  144.7524  155.4796 C.ar    1  UNL1        0.0577
     28 CL        137.0902  144.3646  154.5490 Cl      1  UNL1       -0.0822
     29 C         138.6722  146.1753  155.5328 C.ar    1  UNL1        0.0111
     30 C         139.7829  146.5632  156.4635 C.ar    1  UNL1       -0.0018
@<TRIPOS>BOND
     1     1     2    1
     2     2    19    1
     3    19    20    2
     4    19    21   am
     5    21    23    1
     6    23    24    1
     7    24    25   ar
     8    25    26   ar
     9    26    27   ar
    10    27    28    1
    11    27    29   ar
    12    29    30   ar
    13     2     3    1
    14     3     4    1
    15     4     5    1
    16     5    10    1
    17    10    11    2
    18    11    12    1
    19    12    13    2
    20    13    14    1
    21    14    15    2
    22    15    16    1
    23    16    17    2
    24    17    18    1
    25     5     6    1
    26     6     7    1
    27     7     2    1
    28    30    24   ar
    29    18    10    1
    30    18    14    1
    31     1     8    1
    32     1     9    1
    33    21    22    1
@<TRIPOS>MOLECULE
*****
 30 33 0 0 0
SMALL
GASTEIGER

@<TRIPOS>ATOM
      1 N         143.0153  144.9130  162.4300 N.3     1  UNL1       -0.3162
      2 C         141.7828  144.4360  163.1392 C.3     1  UNL1        0.1166
      3 C         140.3324  144.2010  163.4418 C.3     1  UNL1        0.0739
      4 C         139.9369  143.4348  164.6691 C.3     1  UNL1        0.2039
      5 N         140.9917  142.9034  165.5940 N.pl3   1  UNL1       -0.1931
      6 C         142.4420  143.1384  165.2914 C.3     1  UNL1        0.2039
      7 C         142.8374  143.9047  164.0640 C.3     1  UNL1        0.0739
      8 H         142.7475  145.4209  161.5870 H       1  UNL1        0.1192
      9 H         143.5926  144.1116  162.1751 H       1  UNL1        0.1192
     10 C         140.5961  142.1372  166.8213 C.2     1  UNL1        0.3205
     11 N         141.0549  142.5976  168.1732 N.2     1  UNL1        0.0097
     12 C         140.6593  141.8314  169.4005 C.2     1  UNL1        0.4717
     13 N         139.8050  140.6047  169.2760 N.2     1  UNL1        0.0158
     14 C         139.3463  140.1443  167.9242 C.2     1  UNL1        0.3714
     15 N         138.5030  138.9812  167.4928 N.2     1  UNL1       -0.0339
     16 C         138.3775  139.0286  165.9988 C.2     1  UNL1        0.2323
     17 C         139.1431  140.2210  165.5068 C.2     1  UNL1        0.0486
     18 C         139.7418  140.9106  166.6968 C.3     1  UNL1        0.2428
     19 C         141.1561  145.1329  161.9681 C.2     1  UNL1        0.2353
     20 O         139.9906  146.0533  162.1788 O.2     1  UNL1       -0.2737
     21 N         141.6950  144.9093  160.5862 N.am    1  UNL1       -0.2994
     22 H         142.4599  144.3052  160.4479 H       1  UNL1        0.1498
     23 C         141.0683  145.6062  159.4150 C.3     1  UNL1        0.1164
     24 C         140.2345  144.8303  158.4389 C.ar    1  UNL1       -0.0025
     25 C         139.5728  143.5538  158.8662 C.ar    1  UNL1       -0.0018
     26 C         138.7390  142.7779  157.8901 C.ar    1  UNL1        0.0111
     27 C         138.5669  143.2785  156.4866 C.ar    1  UNL1        0.0577
     28 CL        137.7332  142.5027  155.5105 Cl      1  UNL1       -0.0822
     29 C         139.2286  144.5550  156.0593 C.ar    1  UNL1        0.0111
     30 C         140.0624  145.3309  157.0354 C.ar    1  UNL1       -0.0018
@<TRIPOS>BOND
     1     1     2    1
     2     2    19    1
     3    19    20    2
     4    19    21   am
     5    21    23    1
     6    23    24    1
     7    24    25   ar
     8    25    26   ar
     9    26    27   ar
    10    27    28    1
    11    27    29   ar
    12    29    30   ar
    13     2     3    1
    14     3     4    1
    15     4     5    1
    16     5    10    1
    17    10    11    2
    18    11    12    1
    19    12    13    2
    20    13    14    1
    21    14    15    2
    22    15    16    1
    23    16    17    2
    24    17    18    1
    25     5     6    1
    26     6     7    1
    27     7     2    1
    28    30    24   ar
    29    18    10    1
    30    18    14    1
    31     1     8    1
    32     1     9    1
    33    21    22    1
