@<TRIPOS>MOLECULE
*****
 28 31 0 0 0
SMALL
GASTEIGER

@<TRIPOS>ATOM
      1 C         142.3623  144.0807  160.3745 C.ar    1  UNL1        0.0645
      2 C         143.1604  143.2031  159.4564 C.ar    1  UNL1        0.0158
      3 C         143.7106  141.8998  159.9551 C.ar    1  UNL1        0.0014
      4 C         143.4627  141.4741  161.3718 C.ar    1  UNL1        0.0032
      5 C         144.0968  140.1465  161.6640 C.ar    1  UNL1        0.0016
      6 C         144.0894  139.3686  162.9465 C.ar    1  UNL1        0.0192
      7 C         143.4461  139.7261  164.2535 C.ar    1  UNL1        0.0844
      8 N         143.6798  138.6650  165.2877 N.ar    1  UNL1       -0.2437
      9 C         143.1188  138.8278  166.6693 C.ar    1  UNL1        0.0988
     10 C         142.3239  140.0516  167.0166 C.ar    1  UNL1        0.0193
     11 C         142.0902  141.1126  165.9825 C.ar    1  UNL1        0.0062
     12 C         142.6513  140.9498  164.6009 C.ar    1  UNL1        0.0566
     13 C         142.3036  142.1184  163.7270 C.ar    1  UNL1        0.1970
     14 O         141.4867  143.1960  164.3760 O.2     1  UNL1       -0.2865
     15 C         142.6647  142.3517  162.2899 C.ar    1  UNL1        0.0403
     16 C         142.1145  143.6550  161.7912 C.ar    1  UNL1        0.0190
     17 C         141.7629  140.2143  168.3982 C.ar    1  UNL1        0.0015
     18 C         142.6847  140.4317  169.5613 C.ar    1  UNL1        0.0000
     19 C         142.1237  140.5944  170.9428 C.ar    1  UNL1        0.0000
     20 C         140.6407  140.5398  171.1613 C.ar    1  UNL1        0.0000
     21 C         139.7188  140.3225  169.9982 C.ar    1  UNL1        0.0000
     22 C         140.2798  140.1597  168.6166 C.ar    1  UNL1        0.0000
     23 N         141.8121  145.3840  159.8758 N.pl3   1  UNL1       -0.2187
     24 H         141.9523  146.2085  160.3952 H       1  UNL1        0.1734
     25 C         140.2844  145.4783  157.2956 C.3     1  UNL1        0.1996
     26 S         141.0483  145.4311  158.5857 S.O2    1  UNL1        0.0558
     27 O         142.2219  146.0808  157.9146 O.2     1  UNL1       -0.1544
     28 O         139.8747  144.7814  159.2569 O.2     1  UNL1       -0.1544
@<TRIPOS>BOND
     1    25    26    1
     2    26    27    2
     3    26    28    2
     4    26    23    1
     5    23     1    1
     6     1     2   ar
     7     2     3   ar
     8     3     4   ar
     9     4     5   ar
    10     5     6   ar
    11     6     7   ar
    12     7     8   ar
    13     8     9   ar
    14     9    10   ar
    15    10    17    1
    16    17    18   ar
    17    18    19   ar
    18    19    20   ar
    19    20    21   ar
    20    21    22   ar
    21    10    11   ar
    22    11    12   ar
    23    12    13   ar
    24    13    14    2
    25    13    15   ar
    26    15    16   ar
    27    16     1   ar
    28    15     4   ar
    29    12     7   ar
    30    22    17   ar
    31    23    24    1
@<TRIPOS>MOLECULE
*****
 28 31 0 0 0
SMALL
GASTEIGER

@<TRIPOS>ATOM
      1 C         139.9750  144.2380  159.9478 C.ar    1  UNL1        0.0645
      2 C         139.2588  143.2708  159.0525 C.ar    1  UNL1        0.0158
      3 C         138.6947  142.0014  159.6186 C.ar    1  UNL1        0.0014
      4 C         138.8469  141.6991  161.0799 C.ar    1  UNL1        0.0032
      5 C         138.2144  140.3867  161.4368 C.ar    1  UNL1        0.0016
      6 C         138.1420  139.7173  162.7773 C.ar    1  UNL1        0.0192
      7 C         138.6842  140.1950  164.0917 C.ar    1  UNL1        0.0844
      8 N         138.3936  139.2179  165.1921 N.ar    1  UNL1       -0.2437
      9 C         138.8515  139.5059  166.5912 C.ar    1  UNL1        0.0988
     10 C         139.6000  140.7710  166.8899 C.ar    1  UNL1        0.0193
     11 C         139.8906  141.7481  165.7896 C.ar    1  UNL1        0.0062
     12 C         139.4327  141.4601  164.3905 C.ar    1  UNL1        0.0566
     13 C         139.8239  142.5600  163.4485 C.ar    1  UNL1        0.1970
     14 O         140.5751  143.7048  164.0608 O.2     1  UNL1       -0.2865
     15 C         139.5632  142.6663  161.9751 C.ar    1  UNL1        0.0403
     16 C         140.1273  143.9357  161.4090 C.ar    1  UNL1        0.0190
     17 C         140.0579  141.0590  168.2889 C.ar    1  UNL1        0.0015
     18 C         140.5230  142.4366  168.6573 C.ar    1  UNL1        0.0000
     19 C         140.9809  142.7246  170.0563 C.ar    1  UNL1        0.0000
     20 C         140.9737  141.6349  171.0871 C.ar    1  UNL1        0.0000
     21 C         140.5085  140.2572  170.7188 C.ar    1  UNL1        0.0000
     22 C         140.0506  139.9692  169.3197 C.ar    1  UNL1        0.0000
     23 N         140.5391  145.5074  159.3817 N.pl3   1  UNL1       -0.2187
     24 H         140.4297  146.3553  159.8698 H       1  UNL1        0.1734
     25 C         142.0005  145.4623  156.7621 C.3     1  UNL1        0.1996
     26 S         141.2698  145.4848  158.0719 S.O2    1  UNL1        0.0558
     27 O         142.4097  144.7569  158.7203 O.2     1  UNL1       -0.1544
     28 O         140.1298  146.2128  157.4234 O.2     1  UNL1       -0.1544
@<TRIPOS>BOND
     1    25    26    1
     2    26    27    2
     3    26    28    2
     4    26    23    1
     5    23     1    1
     6     1     2   ar
     7     2     3   ar
     8     3     4   ar
     9     4     5   ar
    10     5     6   ar
    11     6     7   ar
    12     7     8   ar
    13     8     9   ar
    14     9    10   ar
    15    10    17    1
    16    17    18   ar
    17    18    19   ar
    18    19    20   ar
    19    20    21   ar
    20    21    22   ar
    21    10    11   ar
    22    11    12   ar
    23    12    13   ar
    24    13    14    2
    25    13    15   ar
    26    15    16   ar
    27    16     1   ar
    28    15     4   ar
    29    12     7   ar
    30    22    17   ar
    31    23    24    1
@<TRIPOS>MOLECULE
*****
 28 31 0 0 0
SMALL
GASTEIGER

@<TRIPOS>ATOM
      1 C         138.5865  139.8042  159.2038 C.ar    1  UNL1        0.0645
      2 C         139.6048  138.8972  158.5789 C.ar    1  UNL1        0.0158
      3 C         140.7308  138.3512  159.4059 C.ar    1  UNL1        0.0014
      4 C         140.8385  138.7122  160.8578 C.ar    1  UNL1        0.0032
      5 C         142.0303  138.0632  161.4969 C.ar    1  UNL1        0.0016
      6 C         142.4982  138.1609  162.9187 C.ar    1  UNL1        0.0192
      7 C         141.8898  138.9317  164.0526 C.ar    1  UNL1        0.0844
      8 N         142.6763  138.7574  165.3180 N.ar    1  UNL1       -0.2437
      9 C         142.2362  139.4466  166.5755 C.ar    1  UNL1        0.0988
     10 C         141.0097  140.3102  166.5676 C.ar    1  UNL1        0.0193
     11 C         140.2233  140.4845  165.3023 C.ar    1  UNL1        0.0062
     12 C         140.6634  139.7952  164.0448 C.ar    1  UNL1        0.0566
     13 C         139.7423  140.1012  162.9010 C.ar    1  UNL1        0.1970
     14 O         138.5911  141.0092  163.2175 O.2     1  UNL1       -0.2865
     15 C         139.8203  139.6192  161.4827 C.ar    1  UNL1        0.0403
     16 C         138.6943  140.1652  160.6557 C.ar    1  UNL1        0.0190
     17 C         140.5696  140.9994  167.8251 C.ar    1  UNL1        0.0015
     18 C         139.7541  140.2566  168.8415 C.ar    1  UNL1        0.0000
     19 C         139.3140  140.9458  170.0990 C.ar    1  UNL1        0.0000
     20 C         139.6895  142.3779  170.3401 C.ar    1  UNL1        0.0000
     21 C         140.5051  143.1207  169.3237 C.ar    1  UNL1        0.0000
     22 C         140.9452  142.4315  168.0662 C.ar    1  UNL1        0.0000
     23 N         137.4605  140.3502  158.3768 N.pl3   1  UNL1       -0.2187
     24 H         136.5277  140.1739  158.6376 H       1  UNL1        0.1734
     25 C         138.0509  141.9796  155.9280 C.3     1  UNL1        0.1996
     26 S         137.7557  141.1649  157.1524 S.O2    1  UNL1        0.0558
     27 O         138.1984  142.3066  158.0187 O.2     1  UNL1       -0.1544
     28 O         137.3130  140.0232  156.2860 O.2     1  UNL1       -0.1544
@<TRIPOS>BOND
     1    25    26    1
     2    26    27    2
     3    26    28    2
     4    26    23    1
     5    23     1    1
     6     1     2   ar
     7     2     3   ar
     8     3     4   ar
     9     4     5   ar
    10     5     6   ar
    11     6     7   ar
    12     7     8   ar
    13     8     9   ar
    14     9    10   ar
    15    10    17    1
    16    17    18   ar
    17    18    19   ar
    18    19    20   ar
    19    20    21   ar
    20    21    22   ar
    21    10    11   ar
    22    11    12   ar
    23    12    13   ar
    24    13    14    2
    25    13    15   ar
    26    15    16   ar
    27    16     1   ar
    28    15     4   ar
    29    12     7   ar
    30    22    17   ar
    31    23    24    1
@<TRIPOS>MOLECULE
*****
 28 31 0 0 0
SMALL
GASTEIGER

@<TRIPOS>ATOM
      1 C         141.0353  141.4515  158.9134 C.ar    1  UNL1        0.0645
      2 C         140.4525  140.2314  158.2641 C.ar    1  UNL1        0.0158
      3 C         139.7938  139.1772  159.1036 C.ar    1  UNL1        0.0014
      4 C         139.7178  139.3431  160.5924 C.ar    1  UNL1        0.0032
      5 C         139.0229  138.1815  161.2385 C.ar    1  UNL1        0.0016
      6 C         138.7390  137.9530  162.6937 C.ar    1  UNL1        0.0192
      7 C         139.0800  138.8298  163.8619 C.ar    1  UNL1        0.0844
      8 N         138.6134  138.2272  165.1540 N.ar    1  UNL1       -0.2437
      9 C         138.8560  138.9465  166.4477 C.ar    1  UNL1        0.0988
     10 C         139.5651  140.2683  166.4495 C.ar    1  UNL1        0.0193
     11 C         140.0316  140.8709  165.1575 C.ar    1  UNL1        0.0062
     12 C         139.7891  140.1516  163.8638 C.ar    1  UNL1        0.0566
     13 C         140.3323  140.9231  162.6976 C.ar    1  UNL1        0.1970
     14 O         140.9948  142.2267  163.0316 O.2     1  UNL1       -0.2865
     15 C         140.3006  140.5632  161.2418 C.ar    1  UNL1        0.0403
     16 C         140.9593  141.6174  160.4022 C.ar    1  UNL1        0.0190
     17 C         139.8077  140.9876  167.7433 C.ar    1  UNL1        0.0015
     18 C         140.3138  142.3995  167.7330 C.ar    1  UNL1        0.0000
     19 C         140.5563  143.1188  169.0268 C.ar    1  UNL1        0.0000
     20 C         140.2928  142.4261  170.3308 C.ar    1  UNL1        0.0000
     21 C         139.7866  141.0140  170.3411 C.ar    1  UNL1        0.0000
     22 C         139.5441  140.2948  169.0473 C.ar    1  UNL1        0.0000
     23 N         141.6940  142.5057  158.0739 N.pl3   1  UNL1       -0.2187
     24 H         142.3152  142.2459  157.3557 H       1  UNL1        0.1734
     25 C         141.1185  145.4055  158.5835 C.3     1  UNL1        0.1996
     26 S         141.4063  143.9556  158.3287 S.O2    1  UNL1        0.0558
     27 O         140.0147  143.7724  157.7996 O.2     1  UNL1       -0.1544
     28 O         142.7978  144.1387  158.8578 O.2     1  UNL1       -0.1544
@<TRIPOS>BOND
     1    25    26    1
     2    26    27    2
     3    26    28    2
     4    26    23    1
     5    23     1    1
     6     1     2   ar
     7     2     3   ar
     8     3     4   ar
     9     4     5   ar
    10     5     6   ar
    11     6     7   ar
    12     7     8   ar
    13     8     9   ar
    14     9    10   ar
    15    10    17    1
    16    17    18   ar
    17    18    19   ar
    18    19    20   ar
    19    20    21   ar
    20    21    22   ar
    21    10    11   ar
    22    11    12   ar
    23    12    13   ar
    24    13    14    2
    25    13    15   ar
    26    15    16   ar
    27    16     1   ar
    28    15     4   ar
    29    12     7   ar
    30    22    17   ar
    31    23    24    1
@<TRIPOS>MOLECULE
*****
 28 31 0 0 0
SMALL
GASTEIGER

@<TRIPOS>ATOM
      1 C         142.8363  139.3927  159.6067 C.ar    1  UNL1        0.0645
      2 C         141.6389  138.9052  158.8460 C.ar    1  UNL1        0.0158
      3 C         140.3552  138.6230  159.5688 C.ar    1  UNL1        0.0014
      4 C         140.2688  138.8282  161.0521 C.ar    1  UNL1        0.0032
      5 C         138.9038  138.4894  161.5736 C.ar    1  UNL1        0.0016
      6 C         138.3991  138.5545  162.9847 C.ar    1  UNL1        0.0192
      7 C         139.1347  138.9744  164.2226 C.ar    1  UNL1        0.0844
      8 N         138.2563  138.8936  165.4359 N.ar    1  UNL1       -0.2437
      9 C         138.8000  139.2713  166.7819 C.ar    1  UNL1        0.0988
     10 C         140.2221  139.7299  166.9146 C.ar    1  UNL1        0.0193
     11 C         141.1004  139.8107  165.7014 C.ar    1  UNL1        0.0062
     12 C         140.5566  139.4330  164.3554 C.ar    1  UNL1        0.0566
     13 C         141.5943  139.5848  163.2828 C.ar    1  UNL1        0.1970
     14 O         142.9376  140.0700  163.7410 O.2     1  UNL1       -0.2865
     15 C         141.4662  139.3157  161.8127 C.ar    1  UNL1        0.0403
     16 C         142.7499  139.5979  161.0900 C.ar    1  UNL1        0.0190
     17 C         140.7658  140.1076  168.2606 C.ar    1  UNL1        0.0015
     18 C         142.2474  140.1194  168.4946 C.ar    1  UNL1        0.0000
     19 C         142.7911  140.4971  169.8406 C.ar    1  UNL1        0.0000
     20 C         141.8532  140.8630  170.9526 C.ar    1  UNL1        0.0000
     21 C         140.3716  140.8513  170.7186 C.ar    1  UNL1        0.0000
     22 C         139.8279  140.4735  169.3726 C.ar    1  UNL1        0.0000
     23 N         144.1200  139.6750  158.8840 N.pl3   1  UNL1       -0.2187
     24 H         144.9554  139.2451  159.1783 H       1  UNL1        0.1734
     25 C         144.1420  141.5495  156.5417 C.3     1  UNL1        0.1996
     26 S         144.1310  140.6122  157.7129 S.O2    1  UNL1        0.0558
     27 O         144.4580  139.4678  156.8001 O.2     1  UNL1       -0.1544
     28 O         143.8040  141.7567  158.6257 O.2     1  UNL1       -0.1544
@<TRIPOS>BOND
     1    25    26    1
     2    26    27    2
     3    26    28    2
     4    26    23    1
     5    23     1    1
     6     1     2   ar
     7     2     3   ar
     8     3     4   ar
     9     4     5   ar
    10     5     6   ar
    11     6     7   ar
    12     7     8   ar
    13     8     9   ar
    14     9    10   ar
    15    10    17    1
    16    17    18   ar
    17    18    19   ar
    18    19    20   ar
    19    20    21   ar
    20    21    22   ar
    21    10    11   ar
    22    11    12   ar
    23    12    13   ar
    24    13    14    2
    25    13    15   ar
    26    15    16   ar
    27    16     1   ar
    28    15     4   ar
    29    12     7   ar
    30    22    17   ar
    31    23    24    1
@<TRIPOS>MOLECULE
*****
 28 31 0 0 0
SMALL
GASTEIGER

@<TRIPOS>ATOM
      1 C         141.3035  139.9689  159.4566 C.ar    1  UNL1        0.0645
      2 C         140.2517  138.9472  159.1404 C.ar    1  UNL1        0.0158
      3 C         139.4007  138.3823  160.2389 C.ar    1  UNL1        0.0014
      4 C         139.6014  138.8389  161.6535 C.ar    1  UNL1        0.0032
      5 C         138.6521  138.1530  162.5906 C.ar    1  UNL1        0.0016
      6 C         138.5201  138.3194  164.0755 C.ar    1  UNL1        0.0192
      7 C         139.3048  139.2128  164.9900 C.ar    1  UNL1        0.0844
      8 N         138.8517  139.0740  166.4132 N.ar    1  UNL1       -0.2437
      9 C         139.5093  139.8829  167.4918 C.ar    1  UNL1        0.0988
     10 C         140.6198  140.8306  167.1471 C.ar    1  UNL1        0.0193
     11 C         141.0728  140.9693  165.7240 C.ar    1  UNL1        0.0062
     12 C         140.4153  140.1604  164.6454 C.ar    1  UNL1        0.0566
     13 C         141.0154  140.4486  163.3011 C.ar    1  UNL1        0.1970
     14 O         142.1243  141.4586  163.2866 O.2     1  UNL1       -0.2865
     15 C         140.6531  139.8605  161.9696 C.ar    1  UNL1        0.0403
     16 C         141.5042  140.4255  160.8712 C.ar    1  UNL1        0.0190
     17 C         141.2773  141.6395  168.2257 C.ar    1  UNL1        0.0015
     18 C         140.5276  142.7576  168.8872 C.ar    1  UNL1        0.0000
     19 C         141.1852  143.5665  169.9658 C.ar    1  UNL1        0.0000
     20 C         142.5924  143.2573  170.3829 C.ar    1  UNL1        0.0000
     21 C         143.3421  142.1390  169.7214 C.ar    1  UNL1        0.0000
     22 C         142.6846  141.3301  168.6428 C.ar    1  UNL1        0.0000
     23 N         142.1545  140.5338  158.3582 N.pl3   1  UNL1       -0.2187
     24 H         142.3221  141.5030  158.3143 H       1  UNL1        0.1734
     25 C         143.3459  138.7107  156.2950 C.3     1  UNL1        0.1996
     26 S         142.7502  139.6223  157.3267 S.O2    1  UNL1        0.0558
     27 O         141.7751  140.1363  156.3094 O.2     1  UNL1       -0.1544
     28 O         143.7253  139.1083  158.3440 O.2     1  UNL1       -0.1544
@<TRIPOS>BOND
     1    25    26    1
     2    26    27    2
     3    26    28    2
     4    26    23    1
     5    23     1    1
     6     1     2   ar
     7     2     3   ar
     8     3     4   ar
     9     4     5   ar
    10     5     6   ar
    11     6     7   ar
    12     7     8   ar
    13     8     9   ar
    14     9    10   ar
    15    10    17    1
    16    17    18   ar
    17    18    19   ar
    18    19    20   ar
    19    20    21   ar
    20    21    22   ar
    21    10    11   ar
    22    11    12   ar
    23    12    13   ar
    24    13    14    2
    25    13    15   ar
    26    15    16   ar
    27    16     1   ar
    28    15     4   ar
    29    12     7   ar
    30    22    17   ar
    31    23    24    1
@<TRIPOS>MOLECULE
*****
 28 31 0 0 0
SMALL
GASTEIGER

@<TRIPOS>ATOM
      1 C         140.6498  142.1082  168.3257 C.ar    1  UNL1        0.0645
      2 C         140.0498  140.8122  168.7843 C.ar    1  UNL1        0.0158
      3 C         139.3649  139.9125  167.7988 C.ar    1  UNL1        0.0014
      4 C         139.2800  140.3087  166.3546 C.ar    1  UNL1        0.0032
      5 C         138.5585  139.2733  165.5438 C.ar    1  UNL1        0.0016
      6 C         138.2587  139.2783  164.0740 C.ar    1  UNL1        0.0192
      7 C         138.6064  140.3198  163.0521 C.ar    1  UNL1        0.0844
      8 N         138.1184  139.9330  161.6875 N.ar    1  UNL1       -0.2437
      9 C         138.3638  140.8401  160.5183 C.ar    1  UNL1        0.0988
     10 C         139.0972  142.1339  160.7137 C.ar    1  UNL1        0.0193
     11 C         139.5852  142.5206  162.0783 C.ar    1  UNL1        0.0062
     12 C         139.3398  141.6136  163.2475 C.ar    1  UNL1        0.0566
     13 C         139.9066  142.1854  164.5132 C.ar    1  UNL1        0.1970
     14 O         140.5905  143.5136  164.3781 O.2     1  UNL1       -0.2865
     15 C         139.8800  141.6047  165.8959 C.ar    1  UNL1        0.0403
     16 C         140.5649  142.5044  166.8815 C.ar    1  UNL1        0.0190
     17 C         139.3426  143.0409  159.5445 C.ar    1  UNL1        0.0015
     18 C         140.0602  144.3431  159.7430 C.ar    1  UNL1        0.0000
     19 C         140.3056  145.2501  158.5738 C.ar    1  UNL1        0.0000
     20 C         139.8333  144.8550  157.2061 C.ar    1  UNL1        0.0000
     21 C         139.1157  143.5528  157.0075 C.ar    1  UNL1        0.0000
     22 C         138.8703  142.6458  158.1767 C.ar    1  UNL1        0.0000
     23 N         141.3347  143.0080  169.3112 N.pl3   1  UNL1       -0.2187
     24 H         140.8896  143.8305  169.6188 H       1  UNL1        0.1734
     25 C         144.0608  142.3012  170.3451 C.3     1  UNL1        0.1996
     26 S         142.6977  142.6546  169.8282 S.O2    1  UNL1        0.0558
     27 O         143.2509  142.7540  168.4375 O.2     1  UNL1       -0.1544
     28 O         142.1445  142.5552  171.2189 O.2     1  UNL1       -0.1544
@<TRIPOS>BOND
     1    25    26    1
     2    26    27    2
     3    26    28    2
     4    26    23    1
     5    23     1    1
     6     1     2   ar
     7     2     3   ar
     8     3     4   ar
     9     4     5   ar
    10     5     6   ar
    11     6     7   ar
    12     7     8   ar
    13     8     9   ar
    14     9    10   ar
    15    10    17    1
    16    17    18   ar
    17    18    19   ar
    18    19    20   ar
    19    20    21   ar
    20    21    22   ar
    21    10    11   ar
    22    11    12   ar
    23    12    13   ar
    24    13    14    2
    25    13    15   ar
    26    15    16   ar
    27    16     1   ar
    28    15     4   ar
    29    12     7   ar
    30    22    17   ar
    31    23    24    1
@<TRIPOS>MOLECULE
*****
 28 31 0 0 0
SMALL
GASTEIGER

@<TRIPOS>ATOM
      1 C         139.3960  140.1585  166.5507 C.ar    1  UNL1        0.0645
      2 C         139.0204  138.7065  166.5263 C.ar    1  UNL1        0.0158
      3 C         138.7175  138.0319  165.2213 C.ar    1  UNL1        0.0014
      4 C         138.7902  138.8093  163.9405 C.ar    1  UNL1        0.0032
      5 C         138.4520  137.9504  162.7582 C.ar    1  UNL1        0.0016
      6 C         138.4060  138.3314  161.3081 C.ar    1  UNL1        0.0192
      7 C         138.6868  139.6654  160.6823 C.ar    1  UNL1        0.0844
      8 N         138.5262  139.6161  159.1917 N.ar    1  UNL1       -0.2437
      9 C         138.7616  140.8492  158.3708 C.ar    1  UNL1        0.0988
     10 C         139.1577  142.1317  159.0405 C.ar    1  UNL1        0.0193
     11 C         139.3183  142.1810  160.5310 C.ar    1  UNL1        0.0062
     12 C         139.0829  140.9479  161.3519 C.ar    1  UNL1        0.0566
     13 C         139.2960  141.2130  162.8128 C.ar    1  UNL1        0.1970
     14 O         139.6918  142.6154  163.1687 O.2     1  UNL1       -0.2865
     15 C         139.1658  140.2613  163.9649 C.ar    1  UNL1        0.0403
     16 C         139.4687  140.9359  165.2699 C.ar    1  UNL1        0.0190
     17 C         139.3932  143.3649  158.2195 C.ar    1  UNL1        0.0015
     18 C         140.1137  144.5371  158.8167 C.ar    1  UNL1        0.0000
     19 C         140.3491  145.7703  157.9958 C.ar    1  UNL1        0.0000
     20 C         139.8641  145.8312  156.5777 C.ar    1  UNL1        0.0000
     21 C         139.1436  144.6589  155.9805 C.ar    1  UNL1        0.0000
     22 C         138.9081  143.4257  156.8014 C.ar    1  UNL1        0.0000
     23 N         139.6989  140.8331  167.8557 N.pl3   1  UNL1       -0.2187
     24 H         139.2859  141.7010  168.0687 H       1  UNL1        0.1734
     25 C         141.5632  139.5374  169.8168 C.3     1  UNL1        0.1996
     26 S         140.6310  140.1853  168.8362 S.O2    1  UNL1        0.0558
     27 O         141.7929  140.5055  167.9433 O.2     1  UNL1       -0.1544
     28 O         139.4691  139.8651  169.7292 O.2     1  UNL1       -0.1544
@<TRIPOS>BOND
     1    25    26    1
     2    26    27    2
     3    26    28    2
     4    26    23    1
     5    23     1    1
     6     1     2   ar
     7     2     3   ar
     8     3     4   ar
     9     4     5   ar
    10     5     6   ar
    11     6     7   ar
    12     7     8   ar
    13     8     9   ar
    14     9    10   ar
    15    10    17    1
    16    17    18   ar
    17    18    19   ar
    18    19    20   ar
    19    20    21   ar
    20    21    22   ar
    21    10    11   ar
    22    11    12   ar
    23    12    13   ar
    24    13    14    2
    25    13    15   ar
    26    15    16   ar
    27    16     1   ar
    28    15     4   ar
    29    12     7   ar
    30    22    17   ar
    31    23    24    1
@<TRIPOS>MOLECULE
*****
 28 31 0 0 0
SMALL
GASTEIGER

@<TRIPOS>ATOM
      1 C         139.9727  140.9886  167.6471 C.ar    1  UNL1        0.0645
      2 C         139.0170  139.8582  167.8896 C.ar    1  UNL1        0.0158
      3 C         138.7348  138.8676  166.7992 C.ar    1  UNL1        0.0014
      4 C         139.4084  139.0072  165.4663 C.ar    1  UNL1        0.0032
      5 C         138.9892  137.9184  164.5237 C.ar    1  UNL1        0.0016
      6 C         139.4223  137.6909  163.1056 C.ar    1  UNL1        0.0192
      7 C         140.3814  138.4962  162.2800 C.ar    1  UNL1        0.0844
      8 N         140.5354  137.9217  160.9029 N.ar    1  UNL1       -0.2437
      9 C         141.4524  138.5789  159.9144 C.ar    1  UNL1        0.0988
     10 C         142.2154  139.8106  160.3029 C.ar    1  UNL1        0.0193
     11 C         142.0614  140.3850  161.6800 C.ar    1  UNL1        0.0062
     12 C         141.1444  139.7278  162.6685 C.ar    1  UNL1        0.0566
     13 C         141.1367  140.4583  163.9787 C.ar    1  UNL1        0.1970
     14 O         142.0182  141.6696  164.0535 O.2     1  UNL1       -0.2865
     15 C         140.3641  140.1376  165.2237 C.ar    1  UNL1        0.0403
     16 C         140.6462  141.1283  166.3141 C.ar    1  UNL1        0.0190
     17 C         143.1324  140.4678  159.3144 C.ar    1  UNL1        0.0015
     18 C         143.4368  139.7928  158.0099 C.ar    1  UNL1        0.0000
     19 C         144.3537  140.4499  157.0214 C.ar    1  UNL1        0.0000
     20 C         144.9663  141.7822  157.3373 C.ar    1  UNL1        0.0000
     21 C         144.6619  142.4572  158.6418 C.ar    1  UNL1        0.0000
     22 C         143.7450  141.8000  159.6304 C.ar    1  UNL1        0.0000
     23 N         140.2548  141.9793  168.7375 N.pl3   1  UNL1       -0.2187
     24 H         140.1726  142.9440  168.5593 H       1  UNL1        0.1734
     25 C         141.0694  141.0208  171.4610 C.3     1  UNL1        0.1996
     26 S         140.6621  141.5001  170.0992 S.O2    1  UNL1        0.0558
     27 O         139.3598  141.9885  170.6607 O.2     1  UNL1       -0.1544
     28 O         141.9645  141.0116  169.5377 O.2     1  UNL1       -0.1544
@<TRIPOS>BOND
     1    25    26    1
     2    26    27    2
     3    26    28    2
     4    26    23    1
     5    23     1    1
     6     1     2   ar
     7     2     3   ar
     8     3     4   ar
     9     4     5   ar
    10     5     6   ar
    11     6     7   ar
    12     7     8   ar
    13     8     9   ar
    14     9    10   ar
    15    10    17    1
    16    17    18   ar
    17    18    19   ar
    18    19    20   ar
    19    20    21   ar
    20    21    22   ar
    21    10    11   ar
    22    11    12   ar
    23    12    13   ar
    24    13    14    2
    25    13    15   ar
    26    15    16   ar
    27    16     1   ar
    28    15     4   ar
    29    12     7   ar
    30    22    17   ar
    31    23    24    1
