@<TRIPOS>MOLECULE
*****
 33 36 0 0 0
SMALL
GASTEIGER

@<TRIPOS>ATOM
      1 N         138.2056  139.6544  164.4724 N.am    1  UNL1       -0.2999
      2 C         138.8807  138.9782  163.3162 C.2     1  UNL1        0.2701
      3 O         140.3778  138.9672  163.2237 O.2     1  UNL1       -0.2706
      4 H         137.2230  139.6616  164.5331 H       1  UNL1        0.1496
      5 N         140.1902  141.2605  167.0406 N.3     1  UNL1       -0.2711
      6 C         139.8180  141.5915  165.6257 C.3     1  UNL1        0.0933
      7 C         139.0277  140.3196  165.5362 C.3     1  UNL1        0.1035
      8 C         139.4000  139.9887  166.9510 C.3     1  UNL1        0.0933
      9 N         143.4783  143.9216  171.2958 N.3     1  UNL1       -0.3222
     10 C         142.6564  143.2563  170.2320 C.3     1  UNL1        0.0509
     11 C         143.2859  142.2450  169.3205 C.3     1  UNL1        0.0169
     12 C         142.4639  141.5798  168.2566 C.3     1  UNL1        0.0173
     13 C         141.0123  141.9258  168.1044 C.3     1  UNL1        0.0577
     14 C         140.3828  142.9371  169.0160 C.3     1  UNL1        0.0173
     15 C         141.2047  143.6023  170.0797 C.3     1  UNL1        0.0169
     16 H         144.4350  143.5700  171.2559 H       1  UNL1        0.1188
     17 H         143.0788  143.7171  172.2118 H       1  UNL1        0.1188
     18 C         138.0587  138.3129  162.2524 C.3     1  UNL1        0.2850
     19 N         137.2486  139.1434  161.3014 N.pl3   1  UNL1       -0.2091
     20 H         136.2679  139.0591  161.2867 H       1  UNL1        0.2928
     21 C         137.9330  140.1024  160.3729 C.2     1  UNL1        0.3493
     22 N         138.2569  139.8530  158.9297 N.2     1  UNL1        0.0798
     23 N         138.9377  141.0756  158.3895 N.2     1  UNL1       -0.0381
     24 C         139.0345  142.0806  159.4989 C.2     1  UNL1        0.1169
     25 C         139.6078  143.4657  159.5512 C.3     1  UNL1        0.0759
     26 C         139.5602  144.2493  160.8293 C.2     1  UNL1       -0.0158
     27 C         138.9393  143.6478  162.0552 C.2     1  UNL1        0.0678
     28 C         138.3660  142.2627  162.0028 C.2     1  UNL1        0.0123
     29 C         138.4136  141.4791  160.7247 C.2     1  UNL1        0.1019
     30 C         138.8917  144.4314  163.3333 C.3     1  UNL1        0.4183
     31 F         138.8442  145.2151  164.6114 F       1  UNL1       -0.1659
     32 F         137.5412  143.8539  163.6372 F       1  UNL1       -0.1659
     33 F         140.2423  145.0089  163.0295 F       1  UNL1       -0.1659
@<TRIPOS>BOND
     1    10     9    1
     2    10    11    1
     3    11    12    1
     4    12    13    1
     5    13     5    1
     6     5     6    1
     7     6     7    1
     8     7     1    1
     9     1     2   am
    10     2     3    2
    11     2    18    1
    12    18    19    1
    13    19    21    1
    14    21    22    2
    15    22    23    1
    16    23    24    2
    17    24    25    1
    18    25    26    1
    19    26    27    2
    20    27    30    1
    21    30    31    1
    22    30    32    1
    23    30    33    1
    24    27    28    1
    25    28    29    2
    26     7     8    1
    27    13    14    1
    28    14    15    1
    29    15    10    1
    30     8     5    1
    31    29    21    1
    32    29    24    1
    33     9    16    1
    34     9    17    1
    35     1     4    1
    36    19    20    1
@<TRIPOS>MOLECULE
*****
 33 36 0 0 0
SMALL
GASTEIGER

@<TRIPOS>ATOM
      1 N         137.7849  139.6610  163.7030 N.am    1  UNL1       -0.2999
      2 C         138.3013  138.6820  162.6907 C.2     1  UNL1        0.2701
      3 O         139.5210  137.8631  162.9935 O.2     1  UNL1       -0.2706
      4 H         136.9843  140.1984  163.5043 H       1  UNL1        0.1496
      5 N         139.4831  140.0477  166.8780 N.3     1  UNL1       -0.2711
      6 C         139.3353  140.8889  165.6449 C.3     1  UNL1        0.0933
      7 C         138.4883  139.8211  165.0182 C.3     1  UNL1        0.1035
      8 C         138.6361  138.9801  166.2513 C.3     1  UNL1        0.0933
      9 N         142.2969  140.6883  172.1384 N.3     1  UNL1       -0.3222
     10 C         141.5934  140.5282  170.8234 C.3     1  UNL1        0.0509
     11 C         140.1725  140.9845  170.6724 C.3     1  UNL1        0.0169
     12 C         139.4691  140.8243  169.3573 C.3     1  UNL1        0.0173
     13 C         140.1865  140.2079  168.1931 C.3     1  UNL1        0.0577
     14 C         141.6074  139.7516  168.3442 C.3     1  UNL1        0.0173
     15 C         142.3108  139.9117  169.6592 C.3     1  UNL1        0.0169
     16 H         141.6649  141.1217  172.8116 H       1  UNL1        0.1188
     17 H         143.1189  141.2793  172.0145 H       1  UNL1        0.1188
     18 C         137.5978  138.5218  161.3756 C.3     1  UNL1        0.2850
     19 N         137.0413  139.7238  160.6714 N.pl3   1  UNL1       -0.2091
     20 H         136.0686  139.8183  160.5530 H       1  UNL1        0.2928
     21 C         137.9670  140.7816  160.1477 C.2     1  UNL1        0.3493
     22 N         138.6209  140.7914  158.7978 N.2     1  UNL1        0.0798
     23 N         139.4592  142.0312  158.6979 N.2     1  UNL1       -0.0381
     24 C         139.3235  142.7876  159.9860 C.2     1  UNL1        0.1169
     25 C         139.9206  144.0799  160.4588 C.3     1  UNL1        0.0759
     26 C         139.5954  144.5998  161.8277 C.2     1  UNL1       -0.0158
     27 C         138.6731  143.8275  162.7238 C.2     1  UNL1        0.0678
     28 C         138.0760  142.5353  162.2510 C.2     1  UNL1        0.0123
     29 C         138.4012  142.0153  160.8821 C.2     1  UNL1        0.1019
     30 C         138.3479  144.3476  164.0927 C.3     1  UNL1        0.4183
     31 F         138.0226  144.8675  165.4616 F       1  UNL1       -0.1659
     32 F         139.3813  145.4224  163.9299 F       1  UNL1       -0.1659
     33 F         137.3144  143.2727  164.2554 F       1  UNL1       -0.1659
@<TRIPOS>BOND
     1    10     9    1
     2    10    11    1
     3    11    12    1
     4    12    13    1
     5    13     5    1
     6     5     6    1
     7     6     7    1
     8     7     1    1
     9     1     2   am
    10     2     3    2
    11     2    18    1
    12    18    19    1
    13    19    21    1
    14    21    22    2
    15    22    23    1
    16    23    24    2
    17    24    25    1
    18    25    26    1
    19    26    27    2
    20    27    30    1
    21    30    31    1
    22    30    32    1
    23    30    33    1
    24    27    28    1
    25    28    29    2
    26     7     8    1
    27    13    14    1
    28    14    15    1
    29    15    10    1
    30     8     5    1
    31    29    21    1
    32    29    24    1
    33     9    16    1
    34     9    17    1
    35     1     4    1
    36    19    20    1
@<TRIPOS>MOLECULE
*****
 33 36 0 0 0
SMALL
GASTEIGER

@<TRIPOS>ATOM
      1 N         142.9629  138.1744  163.4585 N.am    1  UNL1       -0.2999
      2 C         143.8479  138.7956  162.4189 C.2     1  UNL1        0.2701
      3 O         144.5909  140.0620  162.7259 O.2     1  UNL1       -0.2706
      4 H         142.4753  137.3432  163.2570 H       1  UNL1        0.1496
      5 N         142.6203  139.7320  166.7098 N.3     1  UNL1       -0.2711
      6 C         143.5557  138.7247  166.1096 C.3     1  UNL1        0.0933
      7 C         142.8210  138.8196  164.8052 C.3     1  UNL1        0.1035
      8 C         141.8856  139.8270  165.4054 C.3     1  UNL1        0.0933
      9 N         142.0524  142.3128  172.0965 N.3     1  UNL1       -0.3222
     10 C         142.1944  141.6677  170.7498 C.3     1  UNL1        0.0509
     11 C         142.8072  142.4311  169.6133 C.3     1  UNL1        0.0169
     12 C         142.9491  141.7859  168.2666 C.3     1  UNL1        0.0173
     13 C         142.4783  140.3773  168.0564 C.3     1  UNL1        0.0577
     14 C         141.8656  139.6139  169.1930 C.3     1  UNL1        0.0173
     15 C         141.7236  140.2590  170.5396 C.3     1  UNL1        0.0169
     16 H         142.4213  143.2630  172.0589 H       1  UNL1        0.1188
     17 H         142.5725  141.7733  172.7885 H       1  UNL1        0.1188
     18 C         143.9899  138.1504  161.0722 C.3     1  UNL1        0.2850
     19 N         142.8616  137.3399  160.5062 N.pl3   1  UNL1       -0.2091
     20 H         142.9237  136.3576  160.4845 H       1  UNL1        0.2928
     21 C         141.6388  138.0261  159.9733 C.2     1  UNL1        0.3493
     22 N         141.3945  138.4074  158.5433 N.2     1  UNL1        0.0798
     23 N         140.0504  139.0684  158.4630 N.2     1  UNL1       -0.0381
     24 C         139.4640  139.0956  159.8434 C.2     1  UNL1        0.1169
     25 C         138.1630  139.6237  160.3710 C.3     1  UNL1        0.0759
     26 C         137.8437  139.5076  161.8320 C.2     1  UNL1       -0.0158
     27 C         138.8255  138.8634  162.7654 C.2     1  UNL1        0.0678
     28 C         140.1265  138.3353  162.2378 C.2     1  UNL1        0.0123
     29 C         140.4458  138.4514  160.7768 C.2     1  UNL1        0.1019
     30 C         138.5061  138.7473  164.2265 C.3     1  UNL1        0.4183
     31 F         138.1868  138.6311  165.6874 F       1  UNL1       -0.1659
     32 F         137.8269  140.0840  164.1843 F       1  UNL1       -0.1659
     33 F         139.1853  137.4105  164.2686 F       1  UNL1       -0.1659
@<TRIPOS>BOND
     1    10     9    1
     2    10    11    1
     3    11    12    1
     4    12    13    1
     5    13     5    1
     6     5     6    1
     7     6     7    1
     8     7     1    1
     9     1     2   am
    10     2     3    2
    11     2    18    1
    12    18    19    1
    13    19    21    1
    14    21    22    2
    15    22    23    1
    16    23    24    2
    17    24    25    1
    18    25    26    1
    19    26    27    2
    20    27    30    1
    21    30    31    1
    22    30    32    1
    23    30    33    1
    24    27    28    1
    25    28    29    2
    26     7     8    1
    27    13    14    1
    28    14    15    1
    29    15    10    1
    30     8     5    1
    31    29    21    1
    32    29    24    1
    33     9    16    1
    34     9    17    1
    35     1     4    1
    36    19    20    1
@<TRIPOS>MOLECULE
*****
 33 36 0 0 0
SMALL
GASTEIGER

@<TRIPOS>ATOM
      1 N         141.2557  142.4882  162.1447 N.am    1  UNL1       -0.2999
      2 C         142.3535  141.9448  161.2790 C.2     1  UNL1        0.2701
      3 O         143.5984  141.3906  161.9059 O.2     1  UNL1       -0.2706
      4 H         140.4386  142.8520  161.7332 H       1  UNL1        0.1496
      5 N         141.6110  142.4620  165.7485 N.3     1  UNL1       -0.2711
      6 C         141.5516  141.4100  164.6809 C.3     1  UNL1        0.0933
      7 C         141.4028  142.4774  163.6374 C.3     1  UNL1        0.1035
      8 C         141.4622  143.5293  164.7051 C.3     1  UNL1        0.0933
      9 N         142.1997  142.4186  171.7193 N.3     1  UNL1       -0.3222
     10 C         142.0525  142.4295  170.2267 C.3     1  UNL1        0.0509
     11 C         140.7081  142.6726  169.6073 C.3     1  UNL1        0.0169
     12 C         140.5610  142.6834  168.1146 C.3     1  UNL1        0.0173
     13 C         141.7581  142.4512  167.2412 C.3     1  UNL1        0.0577
     14 C         143.1025  142.2081  167.8606 C.3     1  UNL1        0.0173
     15 C         143.2497  142.1972  169.3532 C.3     1  UNL1        0.0169
     16 H         141.2924  142.5921  172.1518 H       1  UNL1        0.1188
     17 H         142.8557  143.1470  172.0016 H       1  UNL1        0.1188
     18 C         142.2063  141.9557  159.7862 C.3     1  UNL1        0.2850
     19 N         141.6147  140.7704  159.0823 N.pl3   1  UNL1       -0.2091
     20 H         142.1440  140.2818  158.4112 H       1  UNL1        0.2928
     21 C         140.2168  140.3297  159.4008 C.2     1  UNL1        0.3493
     22 N         138.9822  140.6856  158.6268 N.2     1  UNL1        0.0798
     23 N         137.8104  140.0316  159.2970 N.2     1  UNL1       -0.0381
     24 C         138.3208  139.2715  160.4852 C.2     1  UNL1        0.1169
     25 C         137.6234  138.4354  161.5170 C.3     1  UNL1        0.0759
     26 C         138.4133  137.7836  162.6129 C.2     1  UNL1       -0.0158
     27 C         139.9005  137.9679  162.6771 C.2     1  UNL1        0.0678
     28 C         140.5979  138.8039  161.6453 C.2     1  UNL1        0.0123
     29 C         139.8080  139.4558  160.5494 C.2     1  UNL1        0.1019
     30 C         140.6904  137.3160  163.7731 C.3     1  UNL1        0.4183
     31 F         141.4803  136.6641  164.8690 F       1  UNL1       -0.1659
     32 F         139.4901  137.3709  164.6709 F       1  UNL1       -0.1659
     33 F         141.8908  137.2611  162.8753 F       1  UNL1       -0.1659
@<TRIPOS>BOND
     1    10     9    1
     2    10    11    1
     3    11    12    1
     4    12    13    1
     5    13     5    1
     6     5     6    1
     7     6     7    1
     8     7     1    1
     9     1     2   am
    10     2     3    2
    11     2    18    1
    12    18    19    1
    13    19    21    1
    14    21    22    2
    15    22    23    1
    16    23    24    2
    17    24    25    1
    18    25    26    1
    19    26    27    2
    20    27    30    1
    21    30    31    1
    22    30    32    1
    23    30    33    1
    24    27    28    1
    25    28    29    2
    26     7     8    1
    27    13    14    1
    28    14    15    1
    29    15    10    1
    30     8     5    1
    31    29    21    1
    32    29    24    1
    33     9    16    1
    34     9    17    1
    35     1     4    1
    36    19    20    1
@<TRIPOS>MOLECULE
*****
 33 36 0 0 0
SMALL
GASTEIGER

@<TRIPOS>ATOM
      1 N         143.0436  141.6000  162.2962 N.am    1  UNL1       -0.2999
      2 C         142.4949  140.5403  161.3875 C.2     1  UNL1        0.2701
      3 O         141.8422  139.3201  161.9664 O.2     1  UNL1       -0.2706
      4 H         143.4720  142.4008  161.9162 H       1  UNL1        0.1496
      5 N         142.7925  141.2127  165.8880 N.3     1  UNL1       -0.2711
      6 C         141.8579  141.6541  164.8009 C.3     1  UNL1        0.0933
      7 C         142.9396  141.4396  163.7839 C.3     1  UNL1        0.1035
      8 C         143.8741  140.9982  164.8711 C.3     1  UNL1        0.0933
      9 N         142.3765  140.5708  171.8390 N.3     1  UNL1       -0.3222
     10 C         142.4805  140.7313  170.3513 C.3     1  UNL1        0.0509
     11 C         142.8691  142.0562  169.7652 C.3     1  UNL1        0.0169
     12 C         142.9731  142.2167  168.2774 C.3     1  UNL1        0.0173
     13 C         142.6885  141.0522  167.3758 C.3     1  UNL1        0.0577
     14 C         142.2998  139.7273  167.9619 C.3     1  UNL1        0.0173
     15 C         142.1959  139.5668  169.4495 C.3     1  UNL1        0.0169
     16 H         142.6021  141.4558  172.2931 H       1  UNL1        0.1188
     17 H         143.0306  139.8526  172.1500 H       1  UNL1        0.1188
     18 C         142.5989  140.7007  159.8997 C.3     1  UNL1        0.2850
     19 N         141.6177  141.5684  159.1685 N.pl3   1  UNL1       -0.2091
     20 H         141.0485  141.1822  158.4642 H       1  UNL1        0.2928
     21 C         141.5039  143.0245  159.5104 C.2     1  UNL1        0.3493
     22 N         142.2244  144.1493  158.8280 N.2     1  UNL1        0.0798
     23 N         141.8154  145.4313  159.4906 N.2     1  UNL1       -0.0381
     24 C         140.8422  145.0989  160.5826 C.2     1  UNL1        0.1169
     25 C         140.1064  145.9584  161.5673 C.3     1  UNL1        0.0759
     26 C         139.1781  145.3305  162.5642 C.2     1  UNL1       -0.0158
     27 C         138.9856  143.8429  162.5764 C.2     1  UNL1        0.0678
     28 C         139.7214  142.9834  161.5917 C.2     1  UNL1        0.0123
     29 C         140.6497  143.6113  160.5948 C.2     1  UNL1        0.1019
     30 C         138.0573  143.2150  163.5734 C.3     1  UNL1        0.4183
     31 F         137.1290  142.5870  164.5704 F       1  UNL1       -0.1659
     32 F         137.2634  144.4862  163.6350 F       1  UNL1       -0.1659
     33 F         138.8511  141.9438  163.5119 F       1  UNL1       -0.1659
@<TRIPOS>BOND
     1    10     9    1
     2    10    11    1
     3    11    12    1
     4    12    13    1
     5    13     5    1
     6     5     6    1
     7     6     7    1
     8     7     1    1
     9     1     2   am
    10     2     3    2
    11     2    18    1
    12    18    19    1
    13    19    21    1
    14    21    22    2
    15    22    23    1
    16    23    24    2
    17    24    25    1
    18    25    26    1
    19    26    27    2
    20    27    30    1
    21    30    31    1
    22    30    32    1
    23    30    33    1
    24    27    28    1
    25    28    29    2
    26     7     8    1
    27    13    14    1
    28    14    15    1
    29    15    10    1
    30     8     5    1
    31    29    21    1
    32    29    24    1
    33     9    16    1
    34     9    17    1
    35     1     4    1
    36    19    20    1
@<TRIPOS>MOLECULE
*****
 33 36 0 0 0
SMALL
GASTEIGER

@<TRIPOS>ATOM
      1 N         142.1072  138.7786  163.3930 N.am    1  UNL1       -0.2999
      2 C         143.5655  138.7559  163.0427 C.2     1  UNL1        0.2701
      3 O         144.5644  139.4149  163.9471 O.2     1  UNL1       -0.2706
      4 H         141.4516  138.3460  162.7994 H       1  UNL1        0.1496
      5 N         140.9980  140.4243  166.4221 N.3     1  UNL1       -0.2711
      6 C         140.7693  140.6367  164.9549 C.3     1  UNL1        0.0933
      7 C         141.6478  139.4602  164.6477 C.3     1  UNL1        0.1035
      8 C         141.8764  139.2479  166.1148 C.3     1  UNL1        0.0933
      9 N         139.1604  143.1508  171.4409 N.3     1  UNL1       -0.3222
     10 C         139.6198  142.4693  170.1862 C.3     1  UNL1        0.0509
     11 C         140.4114  143.2316  169.1654 C.3     1  UNL1        0.0169
     12 C         140.8708  142.5499  167.9106 C.3     1  UNL1        0.0173
     13 C         140.5386  141.1060  167.6768 C.3     1  UNL1        0.0577
     14 C         139.7470  140.3437  168.6977 C.3     1  UNL1        0.0173
     15 C         139.2876  141.0253  169.9524 C.3     1  UNL1        0.0169
     16 H         139.4722  144.1220  171.4341 H       1  UNL1        0.1188
     17 H         139.5545  142.6729  172.2513 H       1  UNL1        0.1188
     18 C         144.0249  138.0743  161.7880 C.3     1  UNL1        0.2850
     19 N         144.4721  138.8906  160.6116 N.pl3   1  UNL1       -0.2091
     20 H         145.4017  138.8277  160.2937 H       1  UNL1        0.2928
     21 C         143.5029  139.8026  159.9197 C.2     1  UNL1        0.3493
     22 N         142.7054  139.4742  158.6924 N.2     1  UNL1        0.0798
     23 N         141.8707  140.6719  158.3479 N.2     1  UNL1       -0.0381
     24 C         142.1521  141.7405  159.3622 C.2     1  UNL1        0.1169
     25 C         141.6202  143.1333  159.5267 C.3     1  UNL1        0.0759
     26 C         142.0971  143.9889  160.6627 C.2     1  UNL1       -0.0158
     27 C         143.1059  143.4516  161.6342 C.2     1  UNL1        0.0678
     28 C         143.6378  142.0588  161.4696 C.2     1  UNL1        0.0123
     29 C         143.1609  141.2033  160.3336 C.2     1  UNL1        0.1019
     30 C         143.5827  144.3073  162.7702 C.3     1  UNL1        0.4183
     31 F         144.0596  145.1629  163.9062 F       1  UNL1       -0.1659
     32 F         142.3439  145.1456  162.6589 F       1  UNL1       -0.1659
     33 F         144.8216  143.4690  162.8816 F       1  UNL1       -0.1659
@<TRIPOS>BOND
     1    10     9    1
     2    10    11    1
     3    11    12    1
     4    12    13    1
     5    13     5    1
     6     5     6    1
     7     6     7    1
     8     7     1    1
     9     1     2   am
    10     2     3    2
    11     2    18    1
    12    18    19    1
    13    19    21    1
    14    21    22    2
    15    22    23    1
    16    23    24    2
    17    24    25    1
    18    25    26    1
    19    26    27    2
    20    27    30    1
    21    30    31    1
    22    30    32    1
    23    30    33    1
    24    27    28    1
    25    28    29    2
    26     7     8    1
    27    13    14    1
    28    14    15    1
    29    15    10    1
    30     8     5    1
    31    29    21    1
    32    29    24    1
    33     9    16    1
    34     9    17    1
    35     1     4    1
    36    19    20    1
@<TRIPOS>MOLECULE
*****
 33 36 0 0 0
SMALL
GASTEIGER

@<TRIPOS>ATOM
      1 N         140.4146  143.3269  162.7505 N.am    1  UNL1       -0.2999
      2 C         140.9994  144.6455  162.3392 C.2     1  UNL1        0.2701
      3 O         141.6186  145.5448  163.3677 O.2     1  UNL1       -0.2706
      4 H         140.0082  142.7366  162.0754 H       1  UNL1        0.1496
      5 N         140.4974  142.3146  166.2265 N.3     1  UNL1       -0.2711
      6 C         139.4153  142.6746  165.2521 C.3     1  UNL1        0.0933
      7 C         140.4489  142.9076  164.1903 C.3     1  UNL1        0.1035
      8 C         141.5310  142.5476  165.1647 C.3     1  UNL1        0.0933
      9 N         140.6348  140.6374  171.9856 N.3     1  UNL1       -0.3222
     10 C         140.6004  141.0568  170.5459 C.3     1  UNL1        0.0509
     11 C         140.6202  142.5134  170.1883 C.3     1  UNL1        0.0169
     12 C         140.5858  142.9327  168.7485 C.3     1  UNL1        0.0173
     13 C         140.5317  141.8954  167.6663 C.3     1  UNL1        0.0577
     14 C         140.5120  140.4388  168.0240 C.3     1  UNL1        0.0173
     15 C         140.5463  140.0195  169.4637 C.3     1  UNL1        0.0169
     16 H         140.6699  141.4655  172.5802 H       1  UNL1        0.1188
     17 H         141.4612  140.0634  172.1529 H       1  UNL1        0.1188
     18 C         140.9651  145.0648  160.8994 C.3     1  UNL1        0.2850
     19 N         142.0956  144.6978  159.9842 N.pl3   1  UNL1       -0.2091
     20 H         142.7628  145.3755  159.7299 H       1  UNL1        0.2928
     21 C         142.2093  143.2983  159.4566 C.2     1  UNL1        0.3493
     22 N         141.6438  142.7957  158.1614 N.2     1  UNL1        0.0798
     23 N         141.9935  141.3425  158.0358 N.2     1  UNL1       -0.0381
     24 C         142.7752  140.9469  159.2534 C.2     1  UNL1        0.1169
     25 C         143.3828  139.6422  159.6760 C.3     1  UNL1        0.0759
     26 C         144.1237  139.5464  160.9767 C.2     1  UNL1       -0.0158
     27 C         144.2570  140.7552  161.8548 C.2     1  UNL1        0.0678
     28 C         143.6495  142.0598  161.4322 C.2     1  UNL1        0.0123
     29 C         142.9086  142.1557  160.1315 C.2     1  UNL1        0.1019
     30 C         144.9980  140.6592  163.1555 C.3     1  UNL1        0.4183
     31 F         145.7389  140.5633  164.4562 F       1  UNL1       -0.1659
     32 F         145.8270  141.8487  162.7711 F       1  UNL1       -0.1659
     33 F         144.1690  139.4698  163.5400 F       1  UNL1       -0.1659
@<TRIPOS>BOND
     1    10     9    1
     2    10    11    1
     3    11    12    1
     4    12    13    1
     5    13     5    1
     6     5     6    1
     7     6     7    1
     8     7     1    1
     9     1     2   am
    10     2     3    2
    11     2    18    1
    12    18    19    1
    13    19    21    1
    14    21    22    2
    15    22    23    1
    16    23    24    2
    17    24    25    1
    18    25    26    1
    19    26    27    2
    20    27    30    1
    21    30    31    1
    22    30    32    1
    23    30    33    1
    24    27    28    1
    25    28    29    2
    26     7     8    1
    27    13    14    1
    28    14    15    1
    29    15    10    1
    30     8     5    1
    31    29    21    1
    32    29    24    1
    33     9    16    1
    34     9    17    1
    35     1     4    1
    36    19    20    1
@<TRIPOS>MOLECULE
*****
 33 36 0 0 0
SMALL
GASTEIGER

@<TRIPOS>ATOM
      1 N         139.2968  140.1442  162.7075 N.am    1  UNL1       -0.2999
      2 C         139.3282  138.7239  162.2264 C.2     1  UNL1        0.2701
      3 O         139.5568  137.6067  163.2009 O.2     1  UNL1       -0.2706
      4 H         139.1468  140.8774  162.0678 H       1  UNL1        0.1496
      5 N         139.7728  140.8764  166.2219 N.3     1  UNL1       -0.2711
      6 C         138.5821  140.6711  165.3331 C.3     1  UNL1        0.0933
      7 C         139.4940  140.4475  164.1632 C.3     1  UNL1        0.1035
      8 C         140.6847  140.6528  165.0521 C.3     1  UNL1        0.0933
      9 N         140.5617  142.0892  172.0448 N.3     1  UNL1       -0.3222
     10 C         140.3645  141.7861  170.5891 C.3     1  UNL1        0.0509
     11 C         140.6241  142.8463  169.5603 C.3     1  UNL1        0.0169
     12 C         140.4268  142.5431  168.1046 C.3     1  UNL1        0.0173
     13 C         139.9701  141.1796  167.6777 C.3     1  UNL1        0.0577
     14 C         139.7105  140.1194  168.7065 C.3     1  UNL1        0.0173
     15 C         139.9077  140.4226  170.1622 C.3     1  UNL1        0.0169
     16 H         140.8716  143.0551  172.1521 H       1  UNL1        0.1188
     17 H         141.2669  141.4611  172.4304 H       1  UNL1        0.1188
     18 C         139.1309  138.4206  160.7706 C.3     1  UNL1        0.2850
     19 N         140.3118  138.3793  159.8464 N.pl3   1  UNL1       -0.2091
     20 H         140.5573  137.5375  159.3988 H       1  UNL1        0.2928
     21 C         141.1184  139.6206  159.6042 C.2     1  UNL1        0.3493
     22 N         140.9266  140.5906  158.4763 N.2     1  UNL1        0.0798
     23 N         141.9481  141.6792  158.6224 N.2     1  UNL1       -0.0381
     24 C         142.7712  141.3820  159.8407 C.2     1  UNL1        0.1169
     25 C         143.9214  142.1056  160.4759 C.3     1  UNL1        0.0759
     26 C         144.5588  141.5568  161.7178 C.2     1  UNL1       -0.0158
     27 C         144.0460  140.2845  162.3246 C.2     1  UNL1        0.0678
     28 C         142.8958  139.5609  161.6895 C.2     1  UNL1        0.0123
     29 C         142.2584  140.1097  160.4475 C.2     1  UNL1        0.1019
     30 C         144.6834  139.7358  163.5667 C.3     1  UNL1        0.4183
     31 F         145.3208  139.1870  164.8087 F       1  UNL1       -0.1659
     32 F         145.7793  140.7537  163.4541 F       1  UNL1       -0.1659
     33 F         143.5875  138.7178  163.6793 F       1  UNL1       -0.1659
@<TRIPOS>BOND
     1    10     9    1
     2    10    11    1
     3    11    12    1
     4    12    13    1
     5    13     5    1
     6     5     6    1
     7     6     7    1
     8     7     1    1
     9     1     2   am
    10     2     3    2
    11     2    18    1
    12    18    19    1
    13    19    21    1
    14    21    22    2
    15    22    23    1
    16    23    24    2
    17    24    25    1
    18    25    26    1
    19    26    27    2
    20    27    30    1
    21    30    31    1
    22    30    32    1
    23    30    33    1
    24    27    28    1
    25    28    29    2
    26     7     8    1
    27    13    14    1
    28    14    15    1
    29    15    10    1
    30     8     5    1
    31    29    21    1
    32    29    24    1
    33     9    16    1
    34     9    17    1
    35     1     4    1
    36    19    20    1
@<TRIPOS>MOLECULE
*****
 33 36 0 0 0
SMALL
GASTEIGER

@<TRIPOS>ATOM
      1 N         141.3318  140.5952  162.4743 N.am    1  UNL1       -0.2999
      2 C         140.0794  139.9807  161.9233 C.2     1  UNL1        0.2701
      3 O         138.9480  139.6306  162.8438 O.2     1  UNL1       -0.2706
      4 H         142.0744  140.8250  161.8701 H       1  UNL1        0.1496
      5 N         141.6241  141.2336  166.0269 N.3     1  UNL1       -0.2711
      6 C         142.0582  140.1301  165.1083 C.3     1  UNL1        0.0933
      7 C         141.4529  140.8597  163.9458 C.3     1  UNL1        0.1035
      8 C         141.0188  141.9632  164.8644 C.3     1  UNL1        0.0933
      9 N         142.1081  142.2914  171.9130 N.3     1  UNL1       -0.3222
     10 C         141.9872  142.0270  170.4415 C.3     1  UNL1        0.0509
     11 C         143.0962  142.4266  169.5140 C.3     1  UNL1        0.0169
     12 C         142.9752  142.1621  168.0425 C.3     1  UNL1        0.0173
     13 C         141.7451  141.4981  167.4985 C.3     1  UNL1        0.0577
     14 C         140.6361  141.0985  168.4260 C.3     1  UNL1        0.0173
     15 C         140.7571  141.3629  169.8974 C.3     1  UNL1        0.0169
     16 H         143.0013  142.7451  172.1047 H       1  UNL1        0.1188
     17 H         142.0588  141.4090  172.4222 H       1  UNL1        0.1188
     18 C         139.9583  139.7162  160.4518 C.3     1  UNL1        0.2850
     19 N         139.2618  140.7069  159.5665 N.pl3   1  UNL1       -0.2091
     20 H         138.4587  140.4387  159.0642 H       1  UNL1        0.2928
     21 C         139.7890  142.1060  159.4466 C.2     1  UNL1        0.3493
     22 N         140.5665  142.6591  158.2892 N.2     1  UNL1        0.0798
     23 N         140.8893  144.0926  158.5903 N.2     1  UNL1       -0.0381
     24 C         140.3113  144.4256  159.9339 C.2     1  UNL1        0.1169
     25 C         140.3163  145.6881  160.7437 C.3     1  UNL1        0.0759
     26 C         139.6413  145.7229  162.0828 C.2     1  UNL1       -0.0158
     27 C         138.9613  144.4950  162.6120 C.2     1  UNL1        0.0678
     28 C         138.9563  143.2325  161.8021 C.2     1  UNL1        0.0123
     29 C         139.6313  143.1978  160.4631 C.2     1  UNL1        0.1019
     30 C         138.2863  144.5298  163.9511 C.3     1  UNL1        0.4183
     31 F         137.6113  144.5646  165.2902 F       1  UNL1       -0.1659
     32 F         139.4330  145.3198  164.5087 F       1  UNL1       -0.1659
     33 F         137.1396  143.7398  163.3936 F       1  UNL1       -0.1659
@<TRIPOS>BOND
     1    10     9    1
     2    10    11    1
     3    11    12    1
     4    12    13    1
     5    13     5    1
     6     5     6    1
     7     6     7    1
     8     7     1    1
     9     1     2   am
    10     2     3    2
    11     2    18    1
    12    18    19    1
    13    19    21    1
    14    21    22    2
    15    22    23    1
    16    23    24    2
    17    24    25    1
    18    25    26    1
    19    26    27    2
    20    27    30    1
    21    30    31    1
    22    30    32    1
    23    30    33    1
    24    27    28    1
    25    28    29    2
    26     7     8    1
    27    13    14    1
    28    14    15    1
    29    15    10    1
    30     8     5    1
    31    29    21    1
    32    29    24    1
    33     9    16    1
    34     9    17    1
    35     1     4    1
    36    19    20    1
