@<TRIPOS>MOLECULE
*****
 37 40 0 0 0
SMALL
GASTEIGER

@<TRIPOS>ATOM
      1 C         141.0353  140.6591  163.6550 C.ar    1  UNL1       -0.0006
      2 C         141.1585  139.3089  164.2968 C.ar    1  UNL1       -0.0004
      3 C         140.9945  139.1662  165.7809 C.ar    1  UNL1       -0.0045
      4 C         140.7072  140.3737  166.6234 C.ar    1  UNL1       -0.0225
      5 C         140.5840  141.7238  165.9816 C.ar    1  UNL1       -0.0257
      6 C         140.2968  142.9313  166.8239 C.3     1  UNL1        0.0307
      7 C         140.7481  141.8665  164.4974 C.ar    1  UNL1       -0.0046
      8 C         140.5431  140.2309  168.1075 C.3     1  UNL1        0.0663
      9 C         139.1701  140.1505  168.7059 C.3     1  UNL1        0.0756
     10 N         139.0060  140.0078  170.1901 N.3     1  UNL1       -0.2970
     11 C         140.2150  139.9455  171.0758 C.3     1  UNL1        0.0714
     12 C         141.5881  140.0259  170.4773 C.3     1  UNL1        0.0486
     13 C         141.7521  140.1686  168.9932 C.3     1  UNL1        0.1133
     14 O         143.1917  140.1541  169.4142 O.3     1  UNL1       -0.3823
     15 H         138.4814  139.1472  170.3470 H       1  UNL1        0.1233
     16 H         143.2457  140.0642  170.3785 H       1  UNL1        0.2107
     17 C         142.4162  140.3063  167.6552 C.ar    1  UNL1        0.0045
     18 C         142.7541  139.0828  166.8561 C.ar    1  UNL1        0.0004
     19 C         143.4181  139.2205  165.5181 C.ar    1  UNL1        0.0317
     20 C         143.7442  140.5819  164.9794 C.ar    1  UNL1        0.1674
     21 F         144.4083  140.7196  163.6414 F       1  UNL1       -0.2018
     22 C         143.4064  141.8054  165.7785 C.ar    1  UNL1        0.1671
     23 F         143.7325  143.1668  165.2396 F       1  UNL1       -0.2018
     24 C         142.7423  141.6677  167.1164 C.ar    1  UNL1        0.0299
     25 C         140.1338  140.2927  161.2461 C.ar    1  UNL1       -0.0205
     26 C         140.2979  140.4354  159.7620 C.ar    1  UNL1       -0.0042
     27 C         141.5276  141.0872  159.2026 C.ar    1  UNL1       -0.0003
     28 C         142.5933  141.5963  160.1273 C.ar    1  UNL1       -0.0000
     29 C         142.4292  141.4536  161.6115 C.ar    1  UNL1       -0.0003
     30 C         141.1994  140.8018  162.1708 C.ar    1  UNL1       -0.0039
     31 C         138.9041  139.6409  161.8054 C.3     1  UNL1        0.0476
     32 C         137.6348  140.4282  161.9438 C.3     1  UNL1        0.0941
     33 C         137.7214  144.0865  163.4799 C.3     1  UNL1        0.0946
     34 C         137.8028  142.9628  162.4896 C.2     1  UNL1        0.2230
     35 O         138.1335  143.2498  161.0550 O.2     1  UNL1       -0.2751
     36 N         137.5535  141.5519  162.9340 N.am    1  UNL1       -0.3040
     37 H         137.3364  141.3635  163.8757 H       1  UNL1        0.1494
@<TRIPOS>BOND
     1    33    34    1
     2    34    35    2
     3    34    36   am
     4    36    32    1
     5    32    31    1
     6    31    25    1
     7    25    26   ar
     8    26    27   ar
     9    27    28   ar
    10    28    29   ar
    11    29    30   ar
    12    30     1    1
    13     1     2   ar
    14     2     3   ar
    15     3     4   ar
    16     8     4    1
    17     8     9    1
    18     9    10    1
    19    10    11    1
    20    11    12    1
    21    12    13    1
    22    13    14    1
    23    13    17    1
    24    17    18   ar
    25    18    19   ar
    26    19    20   ar
    27    20    21    1
    28    20    22   ar
    29    22    23    1
    30    22    24   ar
    31     4     5   ar
    32     5     6    1
    33     5     7   ar
    34    30    25   ar
    35     7     1   ar
    36    13     8    1
    37    24    17   ar
    38    36    37    1
    39    10    15    1
    40    14    16    1
@<TRIPOS>MOLECULE
*****
 37 40 0 0 0
SMALL
GASTEIGER

@<TRIPOS>ATOM
      1 C         141.2352  141.5629  163.9392 C.ar    1  UNL1       -0.0006
      2 C         139.8682  141.3526  164.5198 C.ar    1  UNL1       -0.0004
      3 C         139.6447  141.5236  165.9931 C.ar    1  UNL1       -0.0045
      4 C         140.7882  141.9048  166.8860 C.ar    1  UNL1       -0.0225
      5 C         142.1552  142.1150  166.3054 C.ar    1  UNL1       -0.0257
      6 C         143.2987  142.4962  167.1982 C.3     1  UNL1        0.0307
      7 C         142.3787  141.9441  164.8320 C.ar    1  UNL1       -0.0046
      8 C         140.5647  142.0757  168.3593 C.3     1  UNL1        0.0663
      9 C         140.3376  143.4443  168.9296 C.3     1  UNL1        0.0756
     10 N         140.1141  143.6153  170.4030 N.3     1  UNL1       -0.2970
     11 C         140.1176  142.4176  171.3061 C.3     1  UNL1        0.0714
     12 C         140.3446  141.0489  170.7357 C.3     1  UNL1        0.0486
     13 C         140.5682  140.8780  169.2624 C.3     1  UNL1        0.1133
     14 O         140.6604  139.4486  169.7074 O.3     1  UNL1       -0.3823
     15 H         139.2048  144.0642  170.5127 H       1  UNL1        0.1233
     16 H         140.5320  139.3999  170.6676 H       1  UNL1        0.2107
     17 C         140.8237  140.2106  167.9436 C.ar    1  UNL1        0.0045
     18 C         139.6716  139.7883  167.0809 C.ar    1  UNL1        0.0004
     19 C         139.9272  139.1209  165.7621 C.ar    1  UNL1        0.0317
     20 C         141.3350  138.8759  165.3059 C.ar    1  UNL1        0.1674
     21 F         141.5906  138.2085  163.9870 F       1  UNL1       -0.2018
     22 C         142.4871  139.2982  166.1685 C.ar    1  UNL1        0.1671
     23 F         143.8949  139.0532  165.7123 F       1  UNL1       -0.2018
     24 C         142.2315  139.9656  167.4874 C.ar    1  UNL1        0.0299
     25 C         141.8866  142.5627  161.6313 C.ar    1  UNL1       -0.0205
     26 C         142.1100  142.3917  160.1580 C.ar    1  UNL1       -0.0042
     27 C         141.9056  141.0500  159.5191 C.ar    1  UNL1       -0.0003
     28 C         141.4778  139.8793  160.3536 C.ar    1  UNL1       -0.0000
     29 C         141.2543  140.0503  161.8269 C.ar    1  UNL1       -0.0003
     30 C         141.4587  141.3920  162.4658 C.ar    1  UNL1       -0.0039
     31 C         142.0909  143.9043  162.2702 C.3     1  UNL1        0.0476
     32 C         140.9174  144.8070  162.5110 C.3     1  UNL1        0.0941
     33 C         138.5215  145.0401  165.6662 C.3     1  UNL1        0.0946
     34 C         139.0028  144.7927  164.2672 C.2     1  UNL1        0.2230
     35 O         138.0511  144.2838  163.2255 O.2     1  UNL1       -0.2751
     36 N         140.4360  145.0543  163.9099 N.am    1  UNL1       -0.3040
     37 H         141.0607  145.3884  164.5936 H       1  UNL1        0.1494
@<TRIPOS>BOND
     1    33    34    1
     2    34    35    2
     3    34    36   am
     4    36    32    1
     5    32    31    1
     6    31    25    1
     7    25    26   ar
     8    26    27   ar
     9    27    28   ar
    10    28    29   ar
    11    29    30   ar
    12    30     1    1
    13     1     2   ar
    14     2     3   ar
    15     3     4   ar
    16     8     4    1
    17     8     9    1
    18     9    10    1
    19    10    11    1
    20    11    12    1
    21    12    13    1
    22    13    14    1
    23    13    17    1
    24    17    18   ar
    25    18    19   ar
    26    19    20   ar
    27    20    21    1
    28    20    22   ar
    29    22    23    1
    30    22    24   ar
    31     4     5   ar
    32     5     6    1
    33     5     7   ar
    34    30    25   ar
    35     7     1   ar
    36    13     8    1
    37    24    17   ar
    38    36    37    1
    39    10    15    1
    40    14    16    1
@<TRIPOS>MOLECULE
*****
 37 40 0 0 0
SMALL
GASTEIGER

@<TRIPOS>ATOM
      1 C         141.6824  141.2198  164.8630 C.ar    1  UNL1       -0.0006
      2 C         140.7009  140.1895  164.3888 C.ar    1  UNL1       -0.0004
      3 C         140.8028  139.6414  162.9962 C.ar    1  UNL1       -0.0045
      4 C         141.8864  140.1238  162.0778 C.ar    1  UNL1       -0.0225
      5 C         142.8680  141.1541  162.5521 C.ar    1  UNL1       -0.0257
      6 C         143.9515  141.6364  161.6338 C.3     1  UNL1        0.0307
      7 C         142.7660  141.7021  163.9447 C.ar    1  UNL1       -0.0046
      8 C         141.9884  139.5757  160.6853 C.3     1  UNL1        0.0663
      9 C         141.4306  140.3537  159.5305 C.3     1  UNL1        0.0756
     10 N         141.5325  139.8057  158.1379 N.3     1  UNL1       -0.2970
     11 C         142.1923  138.4797  157.9001 C.3     1  UNL1        0.0714
     12 C         142.7501  137.7017  159.0550 C.3     1  UNL1        0.0486
     13 C         142.6481  138.2498  160.4476 C.3     1  UNL1        0.1133
     14 O         143.3581  136.9584  160.7272 O.3     1  UNL1       -0.3823
     15 H         142.0471  140.4934  157.5877 H       1  UNL1        0.1233
     16 H         143.4979  136.4796  159.8953 H       1  UNL1        0.2107
     17 C         142.7928  138.3493  161.9373 C.ar    1  UNL1        0.0045
     18 C         141.7155  137.8132  162.8329 C.ar    1  UNL1        0.0004
     19 C         141.8602  137.9128  164.3226 C.ar    1  UNL1        0.0317
     20 C         143.0820  138.5485  164.9166 C.ar    1  UNL1        0.1674
     21 F         143.2267  138.6480  166.4064 F       1  UNL1       -0.2018
     22 C         144.1593  139.0845  164.0210 C.ar    1  UNL1        0.1671
     23 F         145.3812  139.7202  164.6151 F       1  UNL1       -0.2018
     24 C         144.0147  138.9850  162.5313 C.ar    1  UNL1        0.0299
     25 C         140.4300  142.6544  166.6303 C.ar    1  UNL1       -0.0205
     26 C         140.3280  143.2024  168.0229 C.ar    1  UNL1       -0.0042
     27 C         141.3765  142.8638  169.0408 C.ar    1  UNL1       -0.0003
     28 C         142.5269  141.9772  168.6661 C.ar    1  UNL1       -0.0000
     29 C         142.6289  141.4293  167.2735 C.ar    1  UNL1       -0.0003
     30 C         141.5804  141.7678  166.2556 C.ar    1  UNL1       -0.0039
     31 C         139.3815  142.9930  165.6125 C.3     1  UNL1        0.0476
     32 C         139.0426  144.4273  165.3335 C.3     1  UNL1        0.0941
     33 C         139.9337  146.0275  161.8127 C.3     1  UNL1        0.0946
     34 C         139.1979  145.2775  162.8833 C.2     1  UNL1        0.2230
     35 O         137.8817  144.6278  162.5744 O.2     1  UNL1       -0.2751
     36 N         139.7784  145.1773  164.2629 N.am    1  UNL1       -0.3040
     37 H         140.6422  145.6037  164.4656 H       1  UNL1        0.1494
@<TRIPOS>BOND
     1    33    34    1
     2    34    35    2
     3    34    36   am
     4    36    32    1
     5    32    31    1
     6    31    25    1
     7    25    26   ar
     8    26    27   ar
     9    27    28   ar
    10    28    29   ar
    11    29    30   ar
    12    30     1    1
    13     1     2   ar
    14     2     3   ar
    15     3     4   ar
    16     8     4    1
    17     8     9    1
    18     9    10    1
    19    10    11    1
    20    11    12    1
    21    12    13    1
    22    13    14    1
    23    13    17    1
    24    17    18   ar
    25    18    19   ar
    26    19    20   ar
    27    20    21    1
    28    20    22   ar
    29    22    23    1
    30    22    24   ar
    31     4     5   ar
    32     5     6    1
    33     5     7   ar
    34    30    25   ar
    35     7     1   ar
    36    13     8    1
    37    24    17   ar
    38    36    37    1
    39    10    15    1
    40    14    16    1
@<TRIPOS>MOLECULE
*****
 37 40 0 0 0
SMALL
GASTEIGER

@<TRIPOS>ATOM
      1 C         141.2862  142.0989  163.1277 C.ar    1  UNL1       -0.0006
      2 C         141.8093  142.9239  164.2660 C.ar    1  UNL1       -0.0004
      3 C         141.9663  142.3113  165.6261 C.ar    1  UNL1       -0.0045
      4 C         141.6002  140.8737  165.8480 C.ar    1  UNL1       -0.0225
      5 C         141.0771  140.0487  164.7097 C.ar    1  UNL1       -0.0257
      6 C         140.7110  138.6111  164.9316 C.3     1  UNL1        0.0307
      7 C         140.9201  140.6613  163.3495 C.ar    1  UNL1       -0.0046
      8 C         141.7572  140.2611  167.2082 C.3     1  UNL1        0.0663
      9 C         142.9596  139.4192  167.5173 C.3     1  UNL1        0.0756
     10 N         143.1166  138.8065  168.8775 N.3     1  UNL1       -0.2970
     11 C         142.0713  139.0358  169.9285 C.3     1  UNL1        0.0714
     12 C         140.8689  139.8778  169.6194 C.3     1  UNL1        0.0486
     13 C         140.7119  140.4904  168.2592 C.3     1  UNL1        0.1133
     14 O         139.4612  140.9930  168.9173 O.3     1  UNL1       -0.3823
     15 H         143.9971  139.1543  169.2571 H       1  UNL1        0.1233
     16 H         139.4233  140.6681  169.8304 H       1  UNL1        0.2107
     17 C         140.1205  141.2775  167.1276 C.ar    1  UNL1        0.0045
     18 C         140.4734  142.7253  166.9560 C.ar    1  UNL1        0.0004
     19 C         139.8821  143.5125  165.8243 C.ar    1  UNL1        0.0317
     20 C         138.9377  142.8518  164.8643 C.ar    1  UNL1        0.1674
     21 F         138.3463  143.6390  163.7326 F       1  UNL1       -0.2018
     22 C         138.5848  141.4041  165.0358 C.ar    1  UNL1        0.1671
     23 F         137.6404  140.7435  164.0757 F       1  UNL1       -0.2018
     24 C         139.1761  140.6169  166.1675 C.ar    1  UNL1        0.0299
     25 C         142.3249  143.2685  161.0532 C.ar    1  UNL1       -0.0205
     26 C         142.1679  143.8811  159.6931 C.ar    1  UNL1       -0.0042
     27 C         140.8152  143.9368  159.0472 C.ar    1  UNL1       -0.0003
     28 C         139.6195  143.3799  159.7615 C.ar    1  UNL1       -0.0000
     29 C         139.7765  142.7673  161.1216 C.ar    1  UNL1       -0.0003
     30 C         141.1292  142.7116  161.7675 C.ar    1  UNL1       -0.0039
     31 C         143.6776  143.2128  161.6991 C.3     1  UNL1        0.0476
     32 C         144.6108  142.0802  161.3888 C.3     1  UNL1        0.0941
     33 C         144.8567  139.4353  164.3373 C.3     1  UNL1        0.0946
     34 C         144.9620  140.7238  163.5767 C.2     1  UNL1        0.2230
     35 O         145.5240  141.9444  164.2432 O.2     1  UNL1       -0.2751
     36 N         144.5054  140.7917  162.1494 N.am    1  UNL1       -0.3040
     37 H         144.1366  139.9905  161.7120 H       1  UNL1        0.1494
@<TRIPOS>BOND
     1    33    34    1
     2    34    35    2
     3    34    36   am
     4    36    32    1
     5    32    31    1
     6    31    25    1
     7    25    26   ar
     8    26    27   ar
     9    27    28   ar
    10    28    29   ar
    11    29    30   ar
    12    30     1    1
    13     1     2   ar
    14     2     3   ar
    15     3     4   ar
    16     8     4    1
    17     8     9    1
    18     9    10    1
    19    10    11    1
    20    11    12    1
    21    12    13    1
    22    13    14    1
    23    13    17    1
    24    17    18   ar
    25    18    19   ar
    26    19    20   ar
    27    20    21    1
    28    20    22   ar
    29    22    23    1
    30    22    24   ar
    31     4     5   ar
    32     5     6    1
    33     5     7   ar
    34    30    25   ar
    35     7     1   ar
    36    13     8    1
    37    24    17   ar
    38    36    37    1
    39    10    15    1
    40    14    16    1
@<TRIPOS>MOLECULE
*****
 37 40 0 0 0
SMALL
GASTEIGER

@<TRIPOS>ATOM
      1 C         140.6351  142.0739  165.9236 C.ar    1  UNL1       -0.0006
      2 C         141.4483  142.6219  164.7886 C.ar    1  UNL1       -0.0004
      3 C         141.0967  142.2672  163.3742 C.ar    1  UNL1       -0.0045
      4 C         139.9318  141.3644  163.0948 C.ar    1  UNL1       -0.0225
      5 C         139.1186  140.8163  164.2299 C.ar    1  UNL1       -0.0257
      6 C         137.9537  139.9135  163.9506 C.3     1  UNL1        0.0307
      7 C         139.4703  141.1711  165.6443 C.ar    1  UNL1       -0.0046
      8 C         139.5802  141.0096  161.6805 C.3     1  UNL1        0.0663
      9 C         140.0539  139.7136  161.0924 C.3     1  UNL1        0.0756
     10 N         139.7023  139.3588  159.6780 N.3     1  UNL1       -0.2970
     11 C         138.8769  140.3001  158.8517 C.3     1  UNL1        0.0714
     12 C         138.4032  141.5962  159.4398 C.3     1  UNL1        0.0486
     13 C         138.7548  141.9509  160.8542 C.3     1  UNL1        0.1133
     14 O         137.9551  143.1614  160.4732 O.3     1  UNL1       -0.3823
     15 H         139.1939  138.4752  159.7137 H       1  UNL1        0.1233
     16 H         137.6510  143.0725  159.5564 H       1  UNL1        0.2107
     17 C         138.8287  142.7261  162.1363 C.ar    1  UNL1        0.0045
     18 C         137.7846  142.5267  163.1946 C.ar    1  UNL1        0.0004
     19 C         137.8585  143.3019  164.4766 C.ar    1  UNL1        0.0317
     20 C         138.9766  144.2764  164.7003 C.ar    1  UNL1        0.1674
     21 F         139.0506  145.0516  165.9825 F       1  UNL1       -0.2018
     22 C         140.0208  144.4758  163.6421 C.ar    1  UNL1        0.1671
     23 F         141.1389  145.4503  163.8659 F       1  UNL1       -0.2018
     24 C         139.9469  143.7006  162.3600 C.ar    1  UNL1        0.0299
     25 C         142.2358  141.8790  167.9608 C.ar    1  UNL1       -0.0205
     26 C         142.5875  142.2338  169.3751 C.ar    1  UNL1       -0.0042
     27 C         141.6901  143.1382  170.1668 C.ar    1  UNL1       -0.0003
     28 C         140.4411  143.6879  169.5440 C.ar    1  UNL1       -0.0000
     29 C         140.0895  143.3331  168.1297 C.ar    1  UNL1       -0.0003
     30 C         140.9868  142.4287  167.3381 C.ar    1  UNL1       -0.0039
     31 C         143.1332  140.9745  167.1691 C.3     1  UNL1        0.0476
     32 C         142.9379  139.4884  167.2246 C.3     1  UNL1        0.0941
     33 C         141.4612  137.8513  163.9246 C.3     1  UNL1        0.0946
     34 C         142.4138  138.5185  164.8720 C.2     1  UNL1        0.2230
     35 O         143.7949  138.8829  164.4141 O.2     1  UNL1       -0.2751
     36 N         141.9853  138.8212  166.2773 N.am    1  UNL1       -0.3040
     37 H         141.0788  138.5820  166.5778 H       1  UNL1        0.1494
@<TRIPOS>BOND
     1    33    34    1
     2    34    35    2
     3    34    36   am
     4    36    32    1
     5    32    31    1
     6    31    25    1
     7    25    26   ar
     8    26    27   ar
     9    27    28   ar
    10    28    29   ar
    11    29    30   ar
    12    30     1    1
    13     1     2   ar
    14     2     3   ar
    15     3     4   ar
    16     8     4    1
    17     8     9    1
    18     9    10    1
    19    10    11    1
    20    11    12    1
    21    12    13    1
    22    13    14    1
    23    13    17    1
    24    17    18   ar
    25    18    19   ar
    26    19    20   ar
    27    20    21    1
    28    20    22   ar
    29    22    23    1
    30    22    24   ar
    31     4     5   ar
    32     5     6    1
    33     5     7   ar
    34    30    25   ar
    35     7     1   ar
    36    13     8    1
    37    24    17   ar
    38    36    37    1
    39    10    15    1
    40    14    16    1
@<TRIPOS>MOLECULE
*****
 37 40 0 0 0
SMALL
GASTEIGER

@<TRIPOS>ATOM
      1 C         139.7222  141.2518  164.8857 C.ar    1  UNL1       -0.0006
      2 C         138.4501  141.4322  164.1116 C.ar    1  UNL1       -0.0004
      3 C         138.5011  141.6958  162.6358 C.ar    1  UNL1       -0.0045
      4 C         139.8242  141.7791  161.9341 C.ar    1  UNL1       -0.0225
      5 C         141.0963  141.5987  162.7082 C.ar    1  UNL1       -0.0257
      6 C         142.4195  141.6820  162.0065 C.3     1  UNL1        0.0307
      7 C         141.0453  141.3351  164.1840 C.ar    1  UNL1       -0.0046
      8 C         139.8752  142.0428  160.4584 C.3     1  UNL1        0.0663
      9 C         140.0456  140.9029  159.4983 C.3     1  UNL1        0.0756
     10 N         140.0966  141.1665  158.0225 N.3     1  UNL1       -0.2970
     11 C         139.9772  142.5700  157.5068 C.3     1  UNL1        0.0714
     12 C         139.8069  143.7099  158.4669 C.3     1  UNL1        0.0486
     13 C         139.7559  143.4462  159.9427 C.3     1  UNL1        0.1133
     14 O         139.6001  144.9381  159.9390 O.3     1  UNL1       -0.3823
     15 H         139.3363  140.6325  157.6016 H       1  UNL1        0.1233
     16 H         139.6148  145.2625  159.0250 H       1  UNL1        0.2107
     17 C         139.6508  143.7007  161.4172 C.ar    1  UNL1        0.0045
     18 C         138.3117  143.6597  162.0918 C.ar    1  UNL1        0.0004
     19 C         138.2066  143.9142  163.5663 C.ar    1  UNL1        0.0317
     20 C         139.4406  144.2096  164.3662 C.ar    1  UNL1        0.1674
     21 F         139.3355  144.4641  165.8408 F       1  UNL1       -0.2018
     22 C         140.7797  144.2506  163.6916 C.ar    1  UNL1        0.1671
     23 F         142.0138  144.5461  164.4915 F       1  UNL1       -0.2018
     24 C         140.8848  143.9962  162.2171 C.ar    1  UNL1        0.0299
     25 C         138.9022  139.8124  166.8871 C.ar    1  UNL1       -0.0205
     26 C         138.8511  139.5488  168.3629 C.ar    1  UNL1       -0.0042
     27 C         139.5691  140.4609  169.3129 C.ar    1  UNL1       -0.0003
     28 C         140.3381  141.6366  168.7873 C.ar    1  UNL1       -0.0000
     29 C         140.3891  141.9002  167.3115 C.ar    1  UNL1       -0.0003
     30 C         139.6711  140.9881  166.3615 C.ar    1  UNL1       -0.0039
     31 C         138.1842  138.9003  165.9371 C.3     1  UNL1        0.0476
     32 C         138.8509  137.6472  165.4522 C.3     1  UNL1        0.0941
     33 C         140.7154  138.0074  161.9674 C.3     1  UNL1        0.0946
     34 C         139.6166  137.9268  162.9853 C.2     1  UNL1        0.2230
     35 O         138.1848  138.0452  162.5543 O.2     1  UNL1       -0.2751
     36 N         139.9497  137.7278  164.4343 N.am    1  UNL1       -0.3040
     37 H         140.8894  137.6501  164.7172 H       1  UNL1        0.1494
@<TRIPOS>BOND
     1    33    34    1
     2    34    35    2
     3    34    36   am
     4    36    32    1
     5    32    31    1
     6    31    25    1
     7    25    26   ar
     8    26    27   ar
     9    27    28   ar
    10    28    29   ar
    11    29    30   ar
    12    30     1    1
    13     1     2   ar
    14     2     3   ar
    15     3     4   ar
    16     8     4    1
    17     8     9    1
    18     9    10    1
    19    10    11    1
    20    11    12    1
    21    12    13    1
    22    13    14    1
    23    13    17    1
    24    17    18   ar
    25    18    19   ar
    26    19    20   ar
    27    20    21    1
    28    20    22   ar
    29    22    23    1
    30    22    24   ar
    31     4     5   ar
    32     5     6    1
    33     5     7   ar
    34    30    25   ar
    35     7     1   ar
    36    13     8    1
    37    24    17   ar
    38    36    37    1
    39    10    15    1
    40    14    16    1
@<TRIPOS>MOLECULE
*****
 37 40 0 0 0
SMALL
GASTEIGER

@<TRIPOS>ATOM
      1 C         140.8343  141.8695  165.6714 C.ar    1  UNL1       -0.0006
      2 C         141.5128  140.7411  164.9527 C.ar    1  UNL1       -0.0004
      3 C         141.9241  140.9044  163.5195 C.ar    1  UNL1       -0.0045
      4 C         141.6570  142.1960  162.8050 C.ar    1  UNL1       -0.0225
      5 C         140.9786  143.3243  163.5237 C.ar    1  UNL1       -0.0257
      6 C         140.7115  144.6159  162.8093 C.3     1  UNL1        0.0307
      7 C         140.5672  143.1610  164.9570 C.ar    1  UNL1       -0.0046
      8 C         142.0684  142.3593  161.3718 C.3     1  UNL1        0.0663
      9 C         141.0632  142.1624  160.2760 C.3     1  UNL1        0.0756
     10 N         141.4745  142.3256  158.8427 N.3     1  UNL1       -0.2970
     11 C         142.8910  142.6858  158.5053 C.3     1  UNL1        0.0714
     12 C         143.8962  142.8827  159.6012 C.3     1  UNL1        0.0486
     13 C         143.4849  142.7194  161.0344 C.3     1  UNL1        0.1133
     14 O         144.9332  143.0645  161.2167 O.3     1  UNL1       -0.3823
     15 H         140.8828  143.0567  158.4480 H       1  UNL1        0.1233
     16 H         145.3443  143.2028  160.3491 H       1  UNL1        0.2107
     17 C         143.5765  142.6760  162.5309 C.ar    1  UNL1        0.0045
     18 C         143.3121  143.9144  163.3349 C.ar    1  UNL1        0.0004
     19 C         143.4038  143.8710  164.8314 C.ar    1  UNL1        0.0317
     20 C         143.7598  142.5890  165.5240 C.ar    1  UNL1        0.1674
     21 F         143.8514  142.5456  167.0207 F       1  UNL1       -0.2018
     22 C         144.0242  141.3506  164.7202 C.ar    1  UNL1        0.1671
     23 F         144.3802  140.0686  165.4129 F       1  UNL1       -0.2018
     24 C         143.9325  141.3940  163.2237 C.ar    1  UNL1        0.0299
     25 C         139.7081  140.4624  167.5428 C.ar    1  UNL1       -0.0205
     26 C         139.2968  140.2991  168.9760 C.ar    1  UNL1       -0.0042
     27 C         139.6004  141.3796  169.9711 C.ar    1  UNL1       -0.0003
     28 C         140.3152  142.6234  169.5331 C.ar    1  UNL1       -0.0000
     29 C         140.7265  142.7867  168.0999 C.ar    1  UNL1       -0.0003
     30 C         140.4230  141.7061  167.1047 C.ar    1  UNL1       -0.0039
     31 C         139.4045  139.3819  166.5476 C.3     1  UNL1        0.0476
     32 C         138.0999  139.3890  165.8074 C.3     1  UNL1        0.0941
     33 C         137.7248  141.6968  162.6006 C.3     1  UNL1        0.0946
     34 C         138.0852  140.5319  163.4742 C.2     1  UNL1        0.2230
     35 O         138.7910  139.3451  162.8884 O.2     1  UNL1       -0.2751
     36 N         137.7396  140.5538  164.9338 N.am    1  UNL1       -0.3040
     37 H         137.2763  141.3328  165.3183 H       1  UNL1        0.1494
@<TRIPOS>BOND
     1    33    34    1
     2    34    35    2
     3    34    36   am
     4    36    32    1
     5    32    31    1
     6    31    25    1
     7    25    26   ar
     8    26    27   ar
     9    27    28   ar
    10    28    29   ar
    11    29    30   ar
    12    30     1    1
    13     1     2   ar
    14     2     3   ar
    15     3     4   ar
    16     8     4    1
    17     8     9    1
    18     9    10    1
    19    10    11    1
    20    11    12    1
    21    12    13    1
    22    13    14    1
    23    13    17    1
    24    17    18   ar
    25    18    19   ar
    26    19    20   ar
    27    20    21    1
    28    20    22   ar
    29    22    23    1
    30    22    24   ar
    31     4     5   ar
    32     5     6    1
    33     5     7   ar
    34    30    25   ar
    35     7     1   ar
    36    13     8    1
    37    24    17   ar
    38    36    37    1
    39    10    15    1
    40    14    16    1
@<TRIPOS>MOLECULE
*****
 37 40 0 0 0
SMALL
GASTEIGER

@<TRIPOS>ATOM
      1 C         142.0225  140.7959  163.2379 C.ar    1  UNL1       -0.0006
      2 C         142.8532  140.4025  164.4233 C.ar    1  UNL1       -0.0004
      3 C         142.2478  140.3997  165.7956 C.ar    1  UNL1       -0.0045
      4 C         140.8117  140.7904  165.9827 C.ar    1  UNL1       -0.0225
      5 C         139.9810  141.1838  164.7973 C.ar    1  UNL1       -0.0257
      6 C         138.5449  141.5745  164.9844 C.3     1  UNL1        0.0307
      7 C         140.5864  141.1866  163.4249 C.ar    1  UNL1       -0.0046
      8 C         140.2063  140.7876  167.3551 C.3     1  UNL1        0.0663
      9 C         139.3696  139.6261  167.8033 C.3     1  UNL1        0.0756
     10 N         138.7642  139.6233  169.1758 N.3     1  UNL1       -0.2970
     11 C         138.9955  140.7819  170.0999 C.3     1  UNL1        0.0714
     12 C         139.8323  141.9434  169.6516 C.3     1  UNL1        0.0486
     13 C         140.4377  141.9462  168.2793 C.3     1  UNL1        0.1133
     14 O         140.9398  143.2648  168.7882 O.3     1  UNL1       -0.3823
     15 H         139.1164  138.7925  169.6513 H       1  UNL1        0.1233
     16 H         140.6193  143.4055  169.6928 H       1  UNL1        0.2107
     17 C         141.2175  142.4069  167.0836 C.ar    1  UNL1        0.0045
     18 C         142.6743  142.0705  166.9630 C.ar    1  UNL1        0.0004
     19 C         143.4540  142.5313  165.7674 C.ar    1  UNL1        0.0317
     20 C         142.7769  143.3285  164.6922 C.ar    1  UNL1        0.1674
     21 F         143.5567  143.7893  163.4965 F       1  UNL1       -0.2018
     22 C         141.3202  143.6649  164.8127 C.ar    1  UNL1        0.1671
     23 F         140.6431  144.4621  163.7375 F       1  UNL1       -0.2018
     24 C         140.5404  143.2042  166.0084 C.ar    1  UNL1        0.0299
     25 C         143.0185  139.5046  161.2154 C.ar    1  UNL1       -0.0205
     26 C         143.6239  139.5074  159.8430 C.ar    1  UNL1       -0.0042
     27 C         143.8387  140.8044  159.1207 C.ar    1  UNL1       -0.0003
     28 C         143.4482  142.0985  159.7708 C.ar    1  UNL1       -0.0000
     29 C         142.8428  142.0957  161.1432 C.ar    1  UNL1       -0.0003
     30 C         142.6279  140.7987  161.8655 C.ar    1  UNL1       -0.0039
     31 C         142.8037  138.2076  161.9377 C.3     1  UNL1        0.0476
     32 C         141.4203  137.6431  162.0701 C.3     1  UNL1        0.0941
     33 C         138.8308  137.4709  165.0726 C.3     1  UNL1        0.0946
     34 C         139.4090  137.7278  163.7126 C.2     1  UNL1        0.2230
     35 O         138.5542  138.3261  162.6350 O.2     1  UNL1       -0.2751
     36 N         140.8421  137.3862  163.4302 N.am    1  UNL1       -0.3040
     37 H         141.4031  136.9935  164.1374 H       1  UNL1        0.1494
@<TRIPOS>BOND
     1    33    34    1
     2    34    35    2
     3    34    36   am
     4    36    32    1
     5    32    31    1
     6    31    25    1
     7    25    26   ar
     8    26    27   ar
     9    27    28   ar
    10    28    29   ar
    11    29    30   ar
    12    30     1    1
    13     1     2   ar
    14     2     3   ar
    15     3     4   ar
    16     8     4    1
    17     8     9    1
    18     9    10    1
    19    10    11    1
    20    11    12    1
    21    12    13    1
    22    13    14    1
    23    13    17    1
    24    17    18   ar
    25    18    19   ar
    26    19    20   ar
    27    20    21    1
    28    20    22   ar
    29    22    23    1
    30    22    24   ar
    31     4     5   ar
    32     5     6    1
    33     5     7   ar
    34    30    25   ar
    35     7     1   ar
    36    13     8    1
    37    24    17   ar
    38    36    37    1
    39    10    15    1
    40    14    16    1
@<TRIPOS>MOLECULE
*****
 37 40 0 0 0
SMALL
GASTEIGER

@<TRIPOS>ATOM
      1 C         142.3639  141.8034  165.4674 C.ar    1  UNL1       -0.0006
      2 C         141.8752  142.8560  164.5171 C.ar    1  UNL1       -0.0004
      3 C         142.1201  142.7091  163.0445 C.ar    1  UNL1       -0.0045
      4 C         142.8538  141.5095  162.5222 C.ar    1  UNL1       -0.0225
      5 C         143.3425  140.4569  163.4725 C.ar    1  UNL1       -0.0257
      6 C         144.0762  139.2573  162.9503 C.3     1  UNL1        0.0307
      7 C         143.0976  140.6038  164.9451 C.ar    1  UNL1       -0.0046
      8 C         143.0987  141.3626  161.0497 C.3     1  UNL1        0.0663
      9 C         142.1866  140.5091  160.2192 C.3     1  UNL1        0.0756
     10 N         142.4315  140.3622  158.7466 N.3     1  UNL1       -0.2970
     11 C         143.5884  141.0687  158.1046 C.3     1  UNL1        0.0714
     12 C         144.5005  141.9222  158.9351 C.3     1  UNL1        0.0486
     13 C         144.2556  142.0691  160.4076 C.3     1  UNL1        0.1133
     14 O         145.4745  142.9305  160.2591 O.3     1  UNL1       -0.3823
     15 H         141.5884  140.6881  158.2740 H       1  UNL1        0.1233
     16 H         145.7578  142.9327  159.3314 H       1  UNL1        0.2107
     17 C         144.4341  142.5152  161.8286 C.ar    1  UNL1        0.0045
     18 C         145.2554  141.6917  162.7758 C.ar    1  UNL1        0.0004
     19 C         145.4338  142.1377  164.1968 C.ar    1  UNL1        0.0317
     20 C         144.7908  143.4074  164.6705 C.ar    1  UNL1        0.1674
     21 F         144.9693  143.8536  166.0916 F       1  UNL1       -0.2018
     22 C         143.9695  144.2310  163.7234 C.ar    1  UNL1        0.1671
     23 F         143.3266  145.5008  164.1972 F       1  UNL1       -0.2018
     24 C         143.7911  143.7849  162.3024 C.ar    1  UNL1        0.0299
     25 C         140.7486  141.7091  167.5001 C.ar    1  UNL1       -0.0205
     26 C         140.5037  141.8561  168.9726 C.ar    1  UNL1       -0.0042
     27 C         141.6292  142.2443  169.8850 C.ar    1  UNL1       -0.0003
     28 C         142.9996  142.4855  169.3249 C.ar    1  UNL1       -0.0000
     29 C         143.2445  142.3385  167.8524 C.ar    1  UNL1       -0.0003
     30 C         142.1190  141.9503  166.9400 C.ar    1  UNL1       -0.0039
     31 C         139.6231  141.3209  166.5877 C.3     1  UNL1        0.0476
     32 C         139.2373  139.8785  166.4442 C.3     1  UNL1        0.0941
     33 C         141.0768  137.1846  164.1840 C.3     1  UNL1        0.0946
     34 C         140.0658  138.1882  164.6535 C.2     1  UNL1        0.2230
     35 O         138.8724  138.5053  163.8020 O.2     1  UNL1       -0.2751
     36 N         140.2483  138.8748  165.9747 N.am    1  UNL1       -0.3040
     37 H         141.0316  138.6667  166.5336 H       1  UNL1        0.1494
@<TRIPOS>BOND
     1    33    34    1
     2    34    35    2
     3    34    36   am
     4    36    32    1
     5    32    31    1
     6    31    25    1
     7    25    26   ar
     8    26    27   ar
     9    27    28   ar
    10    28    29   ar
    11    29    30   ar
    12    30     1    1
    13     1     2   ar
    14     2     3   ar
    15     3     4   ar
    16     8     4    1
    17     8     9    1
    18     9    10    1
    19    10    11    1
    20    11    12    1
    21    12    13    1
    22    13    14    1
    23    13    17    1
    24    17    18   ar
    25    18    19   ar
    26    19    20   ar
    27    20    21    1
    28    20    22   ar
    29    22    23    1
    30    22    24   ar
    31     4     5   ar
    32     5     6    1
    33     5     7   ar
    34    30    25   ar
    35     7     1   ar
    36    13     8    1
    37    24    17   ar
    38    36    37    1
    39    10    15    1
    40    14    16    1
