@<TRIPOS>MOLECULE
*****
 43 48 0 0 0
SMALL
GASTEIGER

@<TRIPOS>ATOM
      1 N         138.1891  139.3320  166.0080 N.pl3   1  UNL1       -0.2801
      2 H         137.2651  139.1279  166.2799 H       1  UNL1        0.1552
      3 C         138.1950  139.9886  163.4942 C.ar    1  UNL1        0.1477
      4 C         138.6311  139.0718  164.5985 C.ar    1  UNL1        0.0846
      5 C         139.5092  137.8946  164.2931 C.ar    1  UNL1        0.0174
      6 C         139.9512  137.6343  162.8835 C.ar    1  UNL1       -0.0031
      7 C         139.5151  138.5512  161.7793 C.ar    1  UNL1       -0.0218
      8 C         138.6371  139.7283  162.0847 C.ar    1  UNL1        0.0091
      9 C         138.0923  140.7587  161.1405 C.3     1  UNL1        0.0292
     10 C         138.2911  140.8662  159.6575 C.3     1  UNL1        0.0062
     11 C         139.0837  139.9702  158.7528 C.3     1  UNL1        0.0166
     12 C         139.8733  138.7451  159.1073 C.3     1  UNL1        0.0619
     13 C         140.0654  138.1136  160.4543 C.3     1  UNL1        0.0421
     14 N         140.5620  138.0611  157.9637 N.3     1  UNL1       -0.2713
     15 C         142.0515  137.8847  157.9825 C.3     1  UNL1        0.0896
     16 C         142.7402  137.2007  156.8388 C.3     1  UNL1        0.0897
     17 N         141.9394  136.6931  155.6764 N.3     1  UNL1       -0.2691
     18 C         142.6280  136.0091  154.5328 C.3     1  UNL1        0.0897
     19 C         140.4499  136.8695  155.6577 C.3     1  UNL1        0.0897
     20 C         139.7612  137.5535  156.8014 C.3     1  UNL1        0.0896
     21 C         137.9206  142.4374  164.3177 C.3     1  UNL1        0.2525
     22 O         137.3169  141.1658  163.7996 O.3     1  UNL1       -0.4705
     23 C         139.1549  139.9034  167.0034 C.ar    1  UNL1        0.2219
     24 N         138.9298  139.6950  168.4718 N.ar    1  UNL1       -0.2110
     25 C         139.8955  140.2663  169.4672 C.ar    1  UNL1        0.1160
     26 C         141.0864  141.0461  168.9943 C.ar    1  UNL1        0.1082
     27 CL        142.0522  141.6175  169.9897 Cl      1  UNL1       -0.0777
     28 C         141.3116  141.2546  167.5260 C.ar    1  UNL1        0.1435
     29 N         140.3458  140.6832  166.5305 N.ar    1  UNL1       -0.1979
     30 N         142.5025  142.0344  167.0530 N.pl3   1  UNL1       -0.3181
     31 H         142.7556  142.8702  167.5074 H       1  UNL1        0.1482
     32 C         143.3076  141.5407  165.8877 C.3     1  UNL1        0.0832
     33 C         144.1957  142.3751  165.0130 C.3     1  UNL1        0.0984
     34 C         144.8030  141.4761  163.9772 C.3     1  UNL1        0.0323
     35 C         144.8616  140.0613  163.4821 C.2     1  UNL1       -0.0304
     36 C         143.9736  139.2270  164.3569 C.2     1  UNL1       -0.0294
     37 C         143.3662  140.1260  165.3926 C.3     1  UNL1        0.0404
     38 C         143.8789  141.5161  165.1579 C.3     1  UNL1        0.0109
     39 C         144.4344  143.8497  165.1499 C.2     1  UNL1        0.2208
     40 N         143.7395  144.8104  164.2311 N.am    1  UNL1       -0.3288
     41 O         145.3681  144.3634  166.2055 O.2     1  UNL1       -0.2753
     42 H         143.1267  144.4732  163.5383 H       1  UNL1        0.1449
     43 H         143.8962  145.7782  164.3210 H       1  UNL1        0.1449
@<TRIPOS>BOND
     1    21    22    1
     2    22     3    1
     3     3     4   ar
     4     4     1    1
     5     1    23    1
     6    23    24   ar
     7    24    25   ar
     8    25    26   ar
     9    26    27    1
    10    26    28   ar
    11    28    30    1
    12    32    30    1
    13    32    33    1
    14    33    39    1
    15    39    40   am
    16    39    41    2
    17    33    34    1
    18    34    35    1
    19    35    36    2
    20    37    36    1
    21    37    38    1
    22    28    29   ar
    23     4     5   ar
    24     5     6   ar
    25     6     7   ar
    26     7     8   ar
    27     8     9    1
    28     9    10    1
    29    10    11    1
    30    11    12    1
    31    12    14    1
    32    14    15    1
    33    15    16    1
    34    16    17    1
    35    17    18    1
    36    17    19    1
    37    19    20    1
    38    12    13    1
    39     8     3   ar
    40    20    14    1
    41    29    23   ar
    42    13     7    1
    43    37    32    1
    44    38    34    1
    45     1     2    1
    46    30    31    1
    47    40    42    1
    48    40    43    1
@<TRIPOS>MOLECULE
*****
 43 48 0 0 0
SMALL
GASTEIGER

@<TRIPOS>ATOM
      1 N         139.7527  143.3142  159.0880 N.pl3   1  UNL1       -0.2801
      2 H         139.8370  144.0949  158.4943 H       1  UNL1        0.1552
      3 C         139.3273  141.2527  157.5650 C.ar    1  UNL1        0.1477
      4 C         140.1557  141.9541  158.6004 C.ar    1  UNL1        0.0846
      5 C         141.3870  141.2954  159.1480 C.ar    1  UNL1        0.0174
      6 C         141.7900  139.9353  158.6604 C.ar    1  UNL1       -0.0031
      7 C         140.9616  139.2339  157.6250 C.ar    1  UNL1       -0.0218
      8 C         139.7304  139.8926  157.0774 C.ar    1  UNL1        0.0091
      9 C         138.7706  139.3728  156.0484 C.3     1  UNL1        0.0292
     10 C         138.8052  138.0658  155.3130 C.3     1  UNL1        0.0062
     11 C         139.8079  136.9561  155.4250 C.3     1  UNL1        0.0166
     12 C         141.0239  136.8790  156.2999 C.3     1  UNL1        0.0619
     13 C         141.5373  137.8927  157.2791 C.3     1  UNL1        0.0421
     14 N         141.8334  135.6219  156.1799 N.3     1  UNL1       -0.2713
     15 C         141.4305  134.5612  155.1988 C.3     1  UNL1        0.0896
     16 C         142.2402  133.3041  155.0788 C.3     1  UNL1        0.0897
     17 N         143.4526  133.1077  155.9398 N.3     1  UNL1       -0.2691
     18 C         144.2622  131.8507  155.8198 C.3     1  UNL1        0.0897
     19 C         143.8556  134.1685  156.9209 C.3     1  UNL1        0.0897
     20 C         143.0459  135.4256  157.0409 C.3     1  UNL1        0.0896
     21 C         138.2192  142.9835  155.9756 C.3     1  UNL1        0.2525
     22 O         138.0960  141.9114  157.0173 O.3     1  UNL1       -0.4705
     23 C         139.2214  143.4846  160.4804 C.ar    1  UNL1        0.2219
     24 N         139.4768  144.7586  161.2300 N.ar    1  UNL1       -0.2110
     25 C         138.9455  144.9290  162.6223 C.ar    1  UNL1        0.1160
     26 C         138.1588  143.8254  163.2651 C.ar    1  UNL1        0.1082
     27 CL        137.6275  143.9958  164.6575 Cl      1  UNL1       -0.0777
     28 C         137.9034  142.5514  162.5156 C.ar    1  UNL1        0.1435
     29 N         138.4347  142.3810  161.1233 N.ar    1  UNL1       -0.1979
     30 N         137.1167  141.4478  163.1584 N.pl3   1  UNL1       -0.3181
     31 H         136.1413  141.5337  163.2607 H       1  UNL1        0.1482
     32 C         137.8160  140.2135  163.6454 C.3     1  UNL1        0.0832
     33 C         138.2727  139.0653  162.7951 C.3     1  UNL1        0.0984
     34 C         138.9204  138.0528  163.6924 C.3     1  UNL1        0.0323
     35 C         139.2860  137.7499  165.1153 C.2     1  UNL1       -0.0304
     36 C         138.8294  138.8981  165.9656 C.2     1  UNL1       -0.0294
     37 C         138.1816  139.9106  165.0683 C.3     1  UNL1        0.0404
     38 C         138.2379  139.3881  163.6633 C.3     1  UNL1        0.0109
     39 C         138.1101  138.9498  161.3083 C.2     1  UNL1        0.2208
     40 N         136.8734  139.4803  160.6457 N.am    1  UNL1       -0.3288
     41 O         139.1842  138.3039  160.4843 O.2     1  UNL1       -0.2753
     42 H         136.1684  139.9043  161.1865 H       1  UNL1        0.1449
     43 H         136.7667  139.4045  159.6699 H       1  UNL1        0.1449
@<TRIPOS>BOND
     1    21    22    1
     2    22     3    1
     3     3     4   ar
     4     4     1    1
     5     1    23    1
     6    23    24   ar
     7    24    25   ar
     8    25    26   ar
     9    26    27    1
    10    26    28   ar
    11    28    30    1
    12    32    30    1
    13    32    33    1
    14    33    39    1
    15    39    40   am
    16    39    41    2
    17    33    34    1
    18    34    35    1
    19    35    36    2
    20    37    36    1
    21    37    38    1
    22    28    29   ar
    23     4     5   ar
    24     5     6   ar
    25     6     7   ar
    26     7     8   ar
    27     8     9    1
    28     9    10    1
    29    10    11    1
    30    11    12    1
    31    12    14    1
    32    14    15    1
    33    15    16    1
    34    16    17    1
    35    17    18    1
    36    17    19    1
    37    19    20    1
    38    12    13    1
    39     8     3   ar
    40    20    14    1
    41    29    23   ar
    42    13     7    1
    43    37    32    1
    44    38    34    1
    45     1     2    1
    46    30    31    1
    47    40    42    1
    48    40    43    1
@<TRIPOS>MOLECULE
*****
 43 48 0 0 0
SMALL
GASTEIGER

@<TRIPOS>ATOM
      1 N         137.9590  139.1865  166.6644 N.pl3   1  UNL1       -0.2801
      2 H         137.0105  139.0252  166.8732 H       1  UNL1        0.1552
      3 C         138.5591  140.1804  164.3401 C.ar    1  UNL1        0.1477
      4 C         138.4604  139.0019  165.2628 C.ar    1  UNL1        0.0846
      5 C         138.8631  137.6386  164.7839 C.ar    1  UNL1        0.0174
      6 C         139.3645  137.4539  163.3823 C.ar    1  UNL1       -0.0031
      7 C         139.4632  138.6325  162.4596 C.ar    1  UNL1       -0.0218
      8 C         139.0605  139.9956  162.9386 C.ar    1  UNL1        0.0091
      9 C         139.0802  141.2943  162.1880 C.3     1  UNL1        0.0292
     10 C         139.5077  141.5503  160.7731 C.3     1  UNL1        0.0062
     11 C         140.0208  140.5710  159.7595 C.3     1  UNL1        0.0166
     12 C         140.2333  139.0938  159.9101 C.3     1  UNL1        0.0619
     13 C         139.9851  138.2310  161.1119 C.3     1  UNL1        0.0421
     14 N         140.7641  138.3857  158.6991 N.3     1  UNL1       -0.2713
     15 C         139.8331  137.9985  157.5885 C.3     1  UNL1        0.0896
     16 C         140.3641  137.2904  156.3773 C.3     1  UNL1        0.0897
     17 N         141.8259  136.9695  156.2768 N.3     1  UNL1       -0.2691
     18 C         142.3567  136.2614  155.0657 C.3     1  UNL1        0.0897
     19 C         142.7569  137.3567  157.3874 C.3     1  UNL1        0.0897
     20 C         142.2259  138.0648  158.5985 C.3     1  UNL1        0.0896
     21 C         139.1970  142.4994  165.3225 C.3     1  UNL1        0.2525
     22 O         138.1564  141.5437  164.8190 O.3     1  UNL1       -0.4705
     23 C         138.9028  139.6170  167.7479 C.ar    1  UNL1        0.2219
     24 N         138.4254  139.7051  169.1672 N.ar    1  UNL1       -0.2110
     25 C         139.3691  140.1356  170.2507 C.ar    1  UNL1        0.1160
     26 C         140.7904  140.4780  169.9149 C.ar    1  UNL1        0.1082
     27 CL        141.7342  140.9085  170.9984 Cl      1  UNL1       -0.0777
     28 C         141.2679  140.3900  168.4956 C.ar    1  UNL1        0.1435
     29 N         140.3241  139.9595  167.4121 N.ar    1  UNL1       -0.1979
     30 N         142.6891  140.7325  168.1598 N.pl3   1  UNL1       -0.3181
     31 H         143.3695  140.7620  168.8707 H       1  UNL1        0.1482
     32 C         143.0737  141.0299  166.7408 C.3     1  UNL1        0.0832
     33 C         143.3619  140.0153  165.6742 C.3     1  UNL1        0.0984
     34 C         143.7040  140.7525  164.4135 C.3     1  UNL1        0.0323
     35 C         143.8680  142.1168  163.8119 C.2     1  UNL1       -0.0304
     36 C         143.5798  143.1313  164.8785 C.2     1  UNL1       -0.0294
     37 C         143.2377  142.3942  166.1392 C.3     1  UNL1        0.0404
     38 C         143.3145  140.9239  165.8518 C.3     1  UNL1        0.0109
     39 C         143.3160  138.5251  165.8394 C.2     1  UNL1        0.2208
     40 N         144.2923  137.8410  166.7498 N.am    1  UNL1       -0.3288
     41 O         142.2938  137.7190  165.0941 O.2     1  UNL1       -0.2753
     42 H         144.9632  138.3700  167.2389 H       1  UNL1        0.1449
     43 H         144.2622  136.8629  166.8582 H       1  UNL1        0.1449
@<TRIPOS>BOND
     1    21    22    1
     2    22     3    1
     3     3     4   ar
     4     4     1    1
     5     1    23    1
     6    23    24   ar
     7    24    25   ar
     8    25    26   ar
     9    26    27    1
    10    26    28   ar
    11    28    30    1
    12    32    30    1
    13    32    33    1
    14    33    39    1
    15    39    40   am
    16    39    41    2
    17    33    34    1
    18    34    35    1
    19    35    36    2
    20    37    36    1
    21    37    38    1
    22    28    29   ar
    23     4     5   ar
    24     5     6   ar
    25     6     7   ar
    26     7     8   ar
    27     8     9    1
    28     9    10    1
    29    10    11    1
    30    11    12    1
    31    12    14    1
    32    14    15    1
    33    15    16    1
    34    16    17    1
    35    17    18    1
    36    17    19    1
    37    19    20    1
    38    12    13    1
    39     8     3   ar
    40    20    14    1
    41    29    23   ar
    42    13     7    1
    43    37    32    1
    44    38    34    1
    45     1     2    1
    46    30    31    1
    47    40    42    1
    48    40    43    1
@<TRIPOS>MOLECULE
*****
 43 48 0 0 0
SMALL
GASTEIGER

@<TRIPOS>ATOM
      1 N         143.9036  138.8121  165.6875 N.pl3   1  UNL1       -0.2801
      2 H         144.5061  138.0896  165.9776 H       1  UNL1        0.1552
      3 C         143.0304  138.5959  163.2501 C.ar    1  UNL1        0.1477
      4 C         143.9136  139.2687  164.2587 C.ar    1  UNL1        0.0846
      5 C         144.8068  140.3981  163.8386 C.ar    1  UNL1        0.0174
      6 C         144.8168  140.8548  162.4097 C.ar    1  UNL1       -0.0031
      7 C         143.9336  140.1819  161.4011 C.ar    1  UNL1       -0.0218
      8 C         143.0404  139.0526  161.8213 C.ar    1  UNL1        0.0091
      9 C         142.0893  138.2507  160.9831 C.3     1  UNL1        0.0292
     10 C         141.7966  138.3804  159.5176 C.3     1  UNL1        0.0062
     11 C         142.3827  139.3438  158.5285 C.3     1  UNL1        0.0166
     12 C         143.4062  140.4155  158.7605 C.3     1  UNL1        0.0619
     13 C         144.0964  140.7885  160.0390 C.3     1  UNL1        0.0421
     14 N         143.7902  141.2207  157.5547 N.3     1  UNL1       -0.2713
     15 C         145.1670  141.0910  156.9735 C.3     1  UNL1        0.0896
     16 C         145.5510  141.8962  155.7676 C.3     1  UNL1        0.0897
     17 N         144.5583  142.8312  155.1428 N.3     1  UNL1       -0.2691
     18 C         144.9423  143.6363  153.9370 C.3     1  UNL1        0.0897
     19 C         143.1815  142.9609  155.7239 C.3     1  UNL1        0.0897
     20 C         142.7975  142.1556  156.9299 C.3     1  UNL1        0.0896
     21 C         140.7926  137.7564  164.2685 C.3     1  UNL1        0.2525
     22 O         142.1371  137.4665  163.6702 O.3     1  UNL1       -0.4705
     23 C         142.9754  139.4563  166.6742 C.ar    1  UNL1        0.2219
     24 N         142.9430  138.9788  168.0958 N.ar    1  UNL1       -0.2110
     25 C         142.0149  139.6229  169.0825 C.ar    1  UNL1        0.1160
     26 C         141.1191  140.7448  168.6476 C.ar    1  UNL1        0.1082
     27 CL        140.1910  141.3890  169.6343 Cl      1  UNL1       -0.0777
     28 C         141.1515  141.2224  167.2260 C.ar    1  UNL1        0.1435
     29 N         142.0796  140.5782  166.2393 N.ar    1  UNL1       -0.1979
     30 N         140.2558  142.3442  166.7910 N.pl3   1  UNL1       -0.3181
     31 H         140.2748  143.2037  167.2709 H       1  UNL1        0.1482
     32 C         139.3311  142.1567  165.6251 C.3     1  UNL1        0.0832
     33 C         138.7490  143.2483  164.7769 C.3     1  UNL1        0.0984
     34 C         137.8842  142.6109  163.7301 C.3     1  UNL1        0.0323
     35 C         137.3791  141.2986  163.2075 C.2     1  UNL1       -0.0304
     36 C         137.9612  140.2070  164.0557 C.2     1  UNL1       -0.0294
     37 C         138.8260  140.8445  165.1025 C.3     1  UNL1        0.0404
     38 C         138.7784  142.3302  164.9012 C.3     1  UNL1        0.0109
     39 C         138.9894  144.7193  164.9458 C.2     1  UNL1        0.2208
     40 N         139.9247  145.4377  164.0189 N.am    1  UNL1       -0.3288
     41 O         138.2946  145.4719  166.0416 O.2     1  UNL1       -0.2753
     42 H         140.3808  144.9437  163.2996 H       1  UNL1        0.1449
     43 H         140.0826  146.4031  164.1297 H       1  UNL1        0.1449
@<TRIPOS>BOND
     1    21    22    1
     2    22     3    1
     3     3     4   ar
     4     4     1    1
     5     1    23    1
     6    23    24   ar
     7    24    25   ar
     8    25    26   ar
     9    26    27    1
    10    26    28   ar
    11    28    30    1
    12    32    30    1
    13    32    33    1
    14    33    39    1
    15    39    40   am
    16    39    41    2
    17    33    34    1
    18    34    35    1
    19    35    36    2
    20    37    36    1
    21    37    38    1
    22    28    29   ar
    23     4     5   ar
    24     5     6   ar
    25     6     7   ar
    26     7     8   ar
    27     8     9    1
    28     9    10    1
    29    10    11    1
    30    11    12    1
    31    12    14    1
    32    14    15    1
    33    15    16    1
    34    16    17    1
    35    17    18    1
    36    17    19    1
    37    19    20    1
    38    12    13    1
    39     8     3   ar
    40    20    14    1
    41    29    23   ar
    42    13     7    1
    43    37    32    1
    44    38    34    1
    45     1     2    1
    46    30    31    1
    47    40    42    1
    48    40    43    1
@<TRIPOS>MOLECULE
*****
 43 48 0 0 0
SMALL
GASTEIGER

@<TRIPOS>ATOM
      1 N         143.9595  143.1004  165.8871 N.pl3   1  UNL1       -0.2801
      2 H         144.8534  143.4335  166.1304 H       1  UNL1        0.1552
      3 C         144.1475  142.8940  163.3040 C.ar    1  UNL1        0.1477
      4 C         143.4061  143.3680  164.5189 C.ar    1  UNL1        0.0846
      5 C         142.1113  144.1096  164.3654 C.ar    1  UNL1        0.0174
      6 C         141.5579  144.3772  162.9971 C.ar    1  UNL1       -0.0031
      7 C         142.2993  143.9032  161.7823 C.ar    1  UNL1       -0.0218
      8 C         143.5940  143.1617  161.9358 C.ar    1  UNL1        0.0091
      9 C         144.4863  142.6061  160.8656 C.3     1  UNL1        0.0292
     10 C         144.3039  142.6550  159.3774 C.3     1  UNL1        0.0062
     11 C         143.1845  143.2714  158.5922 C.3     1  UNL1        0.0166
     12 C         141.9708  143.9912  159.1009 C.3     1  UNL1        0.0619
     13 C         141.5768  144.2724  160.5207 C.3     1  UNL1        0.0421
     14 N         141.0261  144.4967  158.0511 N.3     1  UNL1       -0.2713
     15 C         139.9765  143.5864  157.4857 C.3     1  UNL1        0.0896
     16 C         139.0318  144.0920  156.4358 C.3     1  UNL1        0.0897
     17 N         139.1368  145.5077  155.9514 N.3     1  UNL1       -0.2691
     18 C         138.1922  146.0132  154.9016 C.3     1  UNL1        0.0897
     19 C         140.1864  146.4180  156.5169 C.3     1  UNL1        0.0897
     20 C         141.1311  145.9124  157.5667 C.3     1  UNL1        0.0896
     21 C         145.4376  140.7179  163.8955 C.3     1  UNL1        0.2525
     22 O         145.4423  142.1525  163.4575 O.3     1  UNL1       -0.4705
     23 C         143.1508  142.3254  166.8847 C.ar    1  UNL1        0.2219
     24 N         143.4638  142.4305  168.3480 N.ar    1  UNL1       -0.2110
     25 C         142.6551  141.6555  169.3456 C.ar    1  UNL1        0.1160
     26 C         141.5333  140.7752  168.8800 C.ar    1  UNL1        0.1082
     27 CL        140.7246  140.0001  169.8776 Cl      1  UNL1       -0.0777
     28 C         141.2203  140.6700  167.4168 C.ar    1  UNL1        0.1435
     29 N         142.0290  141.4450  166.4192 N.ar    1  UNL1       -0.1979
     30 N         140.0985  139.7897  166.9512 N.pl3   1  UNL1       -0.3181
     31 H         139.3562  139.5743  167.5609 H       1  UNL1        0.1482
     32 C         140.1077  139.2377  165.5565 C.3     1  UNL1        0.0832
     33 C         139.3529  139.7908  164.3843 C.3     1  UNL1        0.0984
     34 C         139.6520  138.9305  163.1925 C.3     1  UNL1        0.0323
     35 C         140.4177  137.7283  162.7252 C.2     1  UNL1       -0.0304
     36 C         141.1725  137.1751  163.8974 C.2     1  UNL1       -0.0294
     37 C         140.8734  138.0354  165.0892 C.3     1  UNL1        0.0404
     38 C         139.9336  139.1204  164.6535 C.3     1  UNL1        0.0109
     39 C         138.4562  140.9933  164.4009 C.2     1  UNL1        0.2208
     40 N         137.1628  140.9750  163.6415 N.am    1  UNL1       -0.3288
     41 O         138.8531  142.2141  165.1769 O.2     1  UNL1       -0.2753
     42 H         136.9024  140.1737  163.1322 H       1  UNL1        0.1449
     43 H         136.5743  141.7641  163.6524 H       1  UNL1        0.1449
@<TRIPOS>BOND
     1    21    22    1
     2    22     3    1
     3     3     4   ar
     4     4     1    1
     5     1    23    1
     6    23    24   ar
     7    24    25   ar
     8    25    26   ar
     9    26    27    1
    10    26    28   ar
    11    28    30    1
    12    32    30    1
    13    32    33    1
    14    33    39    1
    15    39    40   am
    16    39    41    2
    17    33    34    1
    18    34    35    1
    19    35    36    2
    20    37    36    1
    21    37    38    1
    22    28    29   ar
    23     4     5   ar
    24     5     6   ar
    25     6     7   ar
    26     7     8   ar
    27     8     9    1
    28     9    10    1
    29    10    11    1
    30    11    12    1
    31    12    14    1
    32    14    15    1
    33    15    16    1
    34    16    17    1
    35    17    18    1
    36    17    19    1
    37    19    20    1
    38    12    13    1
    39     8     3   ar
    40    20    14    1
    41    29    23   ar
    42    13     7    1
    43    37    32    1
    44    38    34    1
    45     1     2    1
    46    30    31    1
    47    40    42    1
    48    40    43    1
@<TRIPOS>MOLECULE
*****
 43 48 0 0 0
SMALL
GASTEIGER

@<TRIPOS>ATOM
      1 N         142.9677  138.1444  165.6603 N.pl3   1  UNL1       -0.2801
      2 H         143.5599  137.4067  165.9330 H       1  UNL1        0.1552
      3 C         143.3321  138.7760  163.1666 C.ar    1  UNL1        0.1477
      4 C         142.4595  138.2165  164.2509 C.ar    1  UNL1        0.0846
      5 C         141.0787  137.7291  163.9257 C.ar    1  UNL1        0.0174
      6 C         140.5705  137.8011  162.5162 C.ar    1  UNL1       -0.0031
      7 C         141.4431  138.3607  161.4320 C.ar    1  UNL1       -0.0218
      8 C         142.8238  138.8481  161.7572 C.ar    1  UNL1        0.0091
      9 C         143.8493  139.4371  160.8344 C.3     1  UNL1        0.0292
     10 C         143.7471  139.6841  159.3583 C.3     1  UNL1        0.0062
     11 C         142.5944  139.4032  158.4407 C.3     1  UNL1        0.0166
     12 C         141.2590  138.8058  158.7723 C.3     1  UNL1        0.0619
     13 C         140.7466  138.3418  160.1036 C.3     1  UNL1        0.0421
     14 N         140.3106  138.6520  157.6205 N.3     1  UNL1       -0.2713
     15 C         139.4520  139.8067  157.1966 C.3     1  UNL1        0.0896
     16 C         138.5036  139.6529  156.0446 C.3     1  UNL1        0.0897
     17 N         138.4138  138.3445  155.3165 N.3     1  UNL1       -0.2691
     18 C         137.4654  138.1908  154.1647 C.3     1  UNL1        0.0897
     19 C         139.2724  137.1898  155.7404 C.3     1  UNL1        0.0897
     20 C         140.2208  137.3436  156.8924 C.3     1  UNL1        0.0896
     21 C         144.9067  140.6287  164.0821 C.3     1  UNL1        0.2525
     22 O         144.7129  139.2635  163.4918 O.3     1  UNL1       -0.4705
     23 C         142.5736  139.1964  166.6543 C.ar    1  UNL1        0.2219
     24 N         143.0098  139.0779  168.0846 N.ar    1  UNL1       -0.2110
     25 C         142.6157  140.1298  169.0786 C.ar    1  UNL1        0.1160
     26 C         141.7853  141.3004  168.6424 C.ar    1  UNL1        0.1082
     27 CL        141.3912  142.3523  169.6364 Cl      1  UNL1       -0.0777
     28 C         141.3490  141.4189  167.2121 C.ar    1  UNL1        0.1435
     29 N         141.7431  140.3670  166.2181 N.ar    1  UNL1       -0.1979
     30 N         140.5186  142.5894  166.7758 N.pl3   1  UNL1       -0.3181
     31 H         139.7225  142.8485  167.2938 H       1  UNL1        0.1482
     32 C         140.9011  143.3652  165.5503 C.3     1  UNL1        0.0832
     33 C         140.0074  144.2887  164.7768 C.3     1  UNL1        0.0984
     34 C         140.7985  144.8479  163.6316 C.3     1  UNL1        0.0323
     35 C         142.1419  144.8363  162.9644 C.2     1  UNL1       -0.0304
     36 C         143.0356  143.9127  163.7379 C.2     1  UNL1       -0.0294
     37 C         142.2446  143.3535  164.8832 C.3     1  UNL1        0.0404
     38 C         140.8619  143.9316  164.8174 C.3     1  UNL1        0.0109
     39 C         138.5742  144.5987  165.0930 C.2     1  UNL1        0.2208
     40 N         137.4780  144.0235  164.2460 N.am    1  UNL1       -0.3288
     41 O         138.2373  145.4839  166.2562 O.2     1  UNL1       -0.2753
     42 H         137.6991  143.4425  163.4826 H       1  UNL1        0.1449
     43 H         136.5374  144.2269  164.4535 H       1  UNL1        0.1449
@<TRIPOS>BOND
     1    21    22    1
     2    22     3    1
     3     3     4   ar
     4     4     1    1
     5     1    23    1
     6    23    24   ar
     7    24    25   ar
     8    25    26   ar
     9    26    27    1
    10    26    28   ar
    11    28    30    1
    12    32    30    1
    13    32    33    1
    14    33    39    1
    15    39    40   am
    16    39    41    2
    17    33    34    1
    18    34    35    1
    19    35    36    2
    20    37    36    1
    21    37    38    1
    22    28    29   ar
    23     4     5   ar
    24     5     6   ar
    25     6     7   ar
    26     7     8   ar
    27     8     9    1
    28     9    10    1
    29    10    11    1
    30    11    12    1
    31    12    14    1
    32    14    15    1
    33    15    16    1
    34    16    17    1
    35    17    18    1
    36    17    19    1
    37    19    20    1
    38    12    13    1
    39     8     3   ar
    40    20    14    1
    41    29    23   ar
    42    13     7    1
    43    37    32    1
    44    38    34    1
    45     1     2    1
    46    30    31    1
    47    40    42    1
    48    40    43    1
@<TRIPOS>MOLECULE
*****
 43 48 0 0 0
SMALL
GASTEIGER

@<TRIPOS>ATOM
      1 N         138.2853  139.3995  166.2302 N.pl3   1  UNL1       -0.2801
      2 H         137.5785  138.7960  166.5549 H       1  UNL1        0.1552
      3 C         138.7646  138.9633  163.7142 C.ar    1  UNL1        0.1477
      4 C         138.2750  139.8686  164.8055 C.ar    1  UNL1        0.0846
      5 C         137.7752  141.2430  164.4720 C.ar    1  UNL1        0.0174
      6 C         137.7649  141.7121  163.0472 C.ar    1  UNL1       -0.0031
      7 C         138.2545  140.8067  161.9560 C.ar    1  UNL1       -0.0218
      8 C         138.7543  139.4324  162.2895 C.ar    1  UNL1        0.0091
      9 C         139.2823  138.3785  161.3618 C.3     1  UNL1        0.0292
     10 C         139.4408  138.4389  159.8713 C.3     1  UNL1        0.0062
     11 C         139.1105  139.5678  158.9407 C.3     1  UNL1        0.0166
     12 C         138.5401  140.9154  159.2704 C.3     1  UNL1        0.0619
     13 C         138.1591  141.4668  160.6124 C.3     1  UNL1        0.0421
     14 N         138.3218  141.8329  158.1041 N.3     1  UNL1       -0.2713
     15 C         137.1803  141.5896  157.1618 C.3     1  UNL1        0.0896
     16 C         136.9621  142.5072  155.9953 C.3     1  UNL1        0.0897
     17 N         137.8853  143.6680  155.7711 N.3     1  UNL1       -0.2691
     18 C         137.6670  144.5854  154.6048 C.3     1  UNL1        0.0897
     19 C         139.0268  143.9113  156.7134 C.3     1  UNL1        0.0897
     20 C         139.2450  142.9937  157.8799 C.3     1  UNL1        0.0896
     21 C         140.6622  137.4028  164.5592 C.3     1  UNL1        0.2525
     22 O         139.2645  137.5889  164.0477 O.3     1  UNL1       -0.4705
     23 C         139.3725  139.8501  167.1602 C.ar    1  UNL1        0.2219
     24 N         139.1943  139.7156  168.6436 N.ar    1  UNL1       -0.2110
     25 C         140.2814  140.1661  169.5736 C.ar    1  UNL1        0.1160
     26 C         141.5469  140.7513  169.0203 C.ar    1  UNL1        0.1082
     27 CL        142.6341  141.2019  169.9504 Cl      1  UNL1       -0.0777
     28 C         141.7253  140.8859  167.5371 C.ar    1  UNL1        0.1435
     29 N         140.6381  140.4353  166.6070 N.ar    1  UNL1       -0.1979
     30 N         142.9907  141.4711  166.9838 N.pl3   1  UNL1       -0.3181
     31 H         143.5838  141.9998  167.5650 H       1  UNL1        0.1482
     32 C         143.3526  141.2507  165.5449 C.3     1  UNL1        0.0832
     33 C         142.9859  142.1436  164.3968 C.3     1  UNL1        0.0984
     34 C         143.5514  141.5434  163.1438 C.3     1  UNL1        0.0323
     35 C         144.3434  140.3913  162.6004 C.2     1  UNL1       -0.0304
     36 C         144.7100  139.4983  163.7485 C.2     1  UNL1       -0.0294
     37 C         144.1446  140.0985  165.0015 C.3     1  UNL1        0.0404
     38 C         143.4285  141.3625  164.6277 C.3     1  UNL1        0.0109
     39 C         142.1930  143.4139  164.4860 C.2     1  UNL1        0.2208
     40 N         140.7551  143.3721  164.9111 N.am    1  UNL1       -0.3288
     41 O         142.8381  144.7258  164.1501 O.2     1  UNL1       -0.2753
     42 H         140.3318  142.5111  165.1315 H       1  UNL1        0.1449
     43 H         140.2347  144.2058  164.9696 H       1  UNL1        0.1449
@<TRIPOS>BOND
     1    21    22    1
     2    22     3    1
     3     3     4   ar
     4     4     1    1
     5     1    23    1
     6    23    24   ar
     7    24    25   ar
     8    25    26   ar
     9    26    27    1
    10    26    28   ar
    11    28    30    1
    12    32    30    1
    13    32    33    1
    14    33    39    1
    15    39    40   am
    16    39    41    2
    17    33    34    1
    18    34    35    1
    19    35    36    2
    20    37    36    1
    21    37    38    1
    22    28    29   ar
    23     4     5   ar
    24     5     6   ar
    25     6     7   ar
    26     7     8   ar
    27     8     9    1
    28     9    10    1
    29    10    11    1
    30    11    12    1
    31    12    14    1
    32    14    15    1
    33    15    16    1
    34    16    17    1
    35    17    18    1
    36    17    19    1
    37    19    20    1
    38    12    13    1
    39     8     3   ar
    40    20    14    1
    41    29    23   ar
    42    13     7    1
    43    37    32    1
    44    38    34    1
    45     1     2    1
    46    30    31    1
    47    40    42    1
    48    40    43    1
@<TRIPOS>MOLECULE
*****
 43 48 0 0 0
SMALL
GASTEIGER

@<TRIPOS>ATOM
      1 N         142.7808  138.3196  165.7490 N.pl3   1  UNL1       -0.2801
      2 H         143.3069  137.5473  166.0589 H       1  UNL1        0.1552
      3 C         143.2018  138.8645  163.2438 C.ar    1  UNL1        0.1477
      4 C         142.2928  138.3744  164.3317 C.ar    1  UNL1        0.0846
      5 C         140.8956  137.9393  164.0023 C.ar    1  UNL1        0.0174
      6 C         140.4074  137.9941  162.5850 C.ar    1  UNL1       -0.0031
      7 C         141.3166  138.4841  161.4971 C.ar    1  UNL1       -0.0218
      8 C         142.7136  138.9193  161.8265 C.ar    1  UNL1        0.0091
      9 C         143.7749  139.4366  160.9011 C.3     1  UNL1        0.0292
     10 C         143.7009  139.6464  159.4176 C.3     1  UNL1        0.0062
     11 C         142.5476  139.3908  158.4934 C.3     1  UNL1        0.0166
     12 C         141.1833  138.8623  158.8241 C.3     1  UNL1        0.0619
     13 C         140.6354  138.4587  160.1609 C.3     1  UNL1        0.0421
     14 N         140.2425  138.7182  157.6648 N.3     1  UNL1       -0.2713
     15 C         140.1589  137.4165  156.9240 C.3     1  UNL1        0.0896
     16 C         139.2180  137.2724  155.7646 C.3     1  UNL1        0.0897
     17 N         138.3608  138.4300  155.3460 N.3     1  UNL1       -0.2691
     18 C         137.4200  138.2859  154.1867 C.3     1  UNL1        0.0897
     19 C         138.4443  139.7316  156.0868 C.3     1  UNL1        0.0897
     20 C         139.3852  139.8757  157.2462 C.3     1  UNL1        0.0896
     21 C         144.8488  140.6792  164.1064 C.3     1  UNL1        0.2525
     22 O         144.5990  139.2996  163.5732 O.3     1  UNL1       -0.4705
     23 C         142.4673  139.4414  166.6941 C.ar    1  UNL1        0.2219
     24 N         142.9485  139.3830  168.1137 N.ar    1  UNL1       -0.2110
     25 C         142.6351  140.5048  169.0587 C.ar    1  UNL1        0.1160
     26 C         141.8403  141.6852  168.5842 C.ar    1  UNL1        0.1082
     27 CL        141.5268  142.8071  169.5293 Cl      1  UNL1       -0.0777
     28 C         141.3591  141.7437  167.1647 C.ar    1  UNL1        0.1435
     29 N         141.6726  140.6219  166.2196 N.ar    1  UNL1       -0.1979
     30 N         140.5644  142.9241  166.6902 N.pl3   1  UNL1       -0.3181
     31 H         140.4672  143.7160  167.2669 H       1  UNL1        0.1482
     32 C         139.9177  142.8979  165.3371 C.3     1  UNL1        0.0832
     33 C         140.4169  143.5974  164.1076 C.3     1  UNL1        0.0984
     34 C         139.4660  143.2994  162.9864 C.3     1  UNL1        0.0323
     35 C         138.2066  142.5690  162.6251 C.2     1  UNL1       -0.0304
     36 C         137.7075  141.8695  163.8545 C.2     1  UNL1       -0.0294
     37 C         138.6583  142.1675  164.9757 C.3     1  UNL1        0.0404
     38 C         139.7452  143.0513  164.4391 C.3     1  UNL1        0.0109
     39 C         141.6504  144.4460  164.0155 C.2     1  UNL1        0.2208
     40 N         141.5747  145.8159  163.4092 N.am    1  UNL1       -0.3288
     41 O         142.9595  143.9246  164.5296 O.2     1  UNL1       -0.2753
     42 H         140.7155  146.1581  163.0717 H       1  UNL1        0.1449
     43 H         142.3843  146.3728  163.3487 H       1  UNL1        0.1449
@<TRIPOS>BOND
     1    21    22    1
     2    22     3    1
     3     3     4   ar
     4     4     1    1
     5     1    23    1
     6    23    24   ar
     7    24    25   ar
     8    25    26   ar
     9    26    27    1
    10    26    28   ar
    11    28    30    1
    12    32    30    1
    13    32    33    1
    14    33    39    1
    15    39    40   am
    16    39    41    2
    17    33    34    1
    18    34    35    1
    19    35    36    2
    20    37    36    1
    21    37    38    1
    22    28    29   ar
    23     4     5   ar
    24     5     6   ar
    25     6     7   ar
    26     7     8   ar
    27     8     9    1
    28     9    10    1
    29    10    11    1
    30    11    12    1
    31    12    14    1
    32    14    15    1
    33    15    16    1
    34    16    17    1
    35    17    18    1
    36    17    19    1
    37    19    20    1
    38    12    13    1
    39     8     3   ar
    40    20    14    1
    41    29    23   ar
    42    13     7    1
    43    37    32    1
    44    38    34    1
    45     1     2    1
    46    30    31    1
    47    40    42    1
    48    40    43    1
@<TRIPOS>MOLECULE
*****
 43 48 0 0 0
SMALL
GASTEIGER

@<TRIPOS>ATOM
      1 N         139.6771  145.8270  160.1474 N.pl3   1  UNL1       -0.2801
      2 H         139.0236  146.5576  160.0561 H       1  UNL1        0.1552
      3 C         139.0423  143.8509  161.7101 C.ar    1  UNL1        0.1477
      4 C         139.8203  145.1079  161.4560 C.ar    1  UNL1        0.0846
      5 C         140.7414  145.6460  162.5105 C.ar    1  UNL1        0.0174
      6 C         140.8846  144.9270  163.8191 C.ar    1  UNL1       -0.0031
      7 C         140.1066  143.6699  164.0732 C.ar    1  UNL1       -0.0218
      8 C         139.1855  143.1319  163.0188 C.ar    1  UNL1        0.0091
      9 C         138.3246  141.9044  163.0667 C.3     1  UNL1        0.0292
     10 C         138.1723  140.9119  164.1810 C.3     1  UNL1        0.0062
     11 C         138.8432  140.9016  165.5225 C.3     1  UNL1        0.0166
     12 C         139.8322  141.8814  166.0811 C.3     1  UNL1        0.0619
     13 C         140.3945  143.1134  165.4361 C.3     1  UNL1        0.0421
     14 N         140.3239  141.5907  167.4681 N.3     1  UNL1       -0.2713
     15 C         140.8592  142.7015  168.3222 C.3     1  UNL1        0.0896
     16 C         141.3509  142.4108  169.7093 C.3     1  UNL1        0.0897
     17 N         141.3073  141.0093  170.2421 N.3     1  UNL1       -0.2691
     18 C         141.7990  140.7187  171.6291 C.3     1  UNL1        0.0897
     19 C         140.7719  139.8985  169.3880 C.3     1  UNL1        0.0897
     20 C         140.2802  140.1892  168.0009 C.3     1  UNL1        0.0896
     21 C         138.6424  142.3640  159.6175 C.3     1  UNL1        0.2525
     22 O         138.1211  143.3128  160.6556 O.3     1  UNL1       -0.4705
     23 C         140.5297  145.4328  158.9779 C.ar    1  UNL1        0.2219
     24 N         140.1499  145.8661  157.5929 N.ar    1  UNL1       -0.2110
     25 C         141.0024  145.4719  156.4234 C.ar    1  UNL1        0.1160
     26 C         142.2348  144.6443  156.6389 C.ar    1  UNL1        0.1082
     27 CL        143.0874  144.2501  155.4693 Cl      1  UNL1       -0.0777
     28 C         142.6147  144.2110  158.0238 C.ar    1  UNL1        0.1435
     29 N         141.7621  144.6052  159.1933 N.ar    1  UNL1       -0.1979
     30 N         143.8470  143.3835  158.2393 N.pl3   1  UNL1       -0.3181
     31 H         144.7283  143.7355  157.9773 H       1  UNL1        0.1482
     32 C         143.7367  142.0197  158.8538 C.3     1  UNL1        0.0832
     33 C         144.0178  141.6725  160.2858 C.3     1  UNL1        0.0984
     34 C         143.7807  140.2018  160.4613 C.3     1  UNL1        0.0323
     35 C         143.3699  138.9457  159.7519 C.2     1  UNL1       -0.0304
     36 C         143.0889  139.2928  158.3199 C.2     1  UNL1       -0.0294
     37 C         143.3259  140.7635  158.1444 C.3     1  UNL1        0.0404
     38 C         143.7535  141.3253  159.4679 C.3     1  UNL1        0.0109
     39 C         144.4585  142.6283  161.3546 C.2     1  UNL1        0.2208
     40 N         145.6191  142.2810  162.2392 N.am    1  UNL1       -0.3288
     41 O         143.7387  143.9313  161.5388 O.2     1  UNL1       -0.2753
     42 H         146.0916  141.4258  162.1182 H       1  UNL1        0.1449
     43 H         145.9084  142.9083  162.9406 H       1  UNL1        0.1449
@<TRIPOS>BOND
     1    21    22    1
     2    22     3    1
     3     3     4   ar
     4     4     1    1
     5     1    23    1
     6    23    24   ar
     7    24    25   ar
     8    25    26   ar
     9    26    27    1
    10    26    28   ar
    11    28    30    1
    12    32    30    1
    13    32    33    1
    14    33    39    1
    15    39    40   am
    16    39    41    2
    17    33    34    1
    18    34    35    1
    19    35    36    2
    20    37    36    1
    21    37    38    1
    22    28    29   ar
    23     4     5   ar
    24     5     6   ar
    25     6     7   ar
    26     7     8   ar
    27     8     9    1
    28     9    10    1
    29    10    11    1
    30    11    12    1
    31    12    14    1
    32    14    15    1
    33    15    16    1
    34    16    17    1
    35    17    18    1
    36    17    19    1
    37    19    20    1
    38    12    13    1
    39     8     3   ar
    40    20    14    1
    41    29    23   ar
    42    13     7    1
    43    37    32    1
    44    38    34    1
    45     1     2    1
    46    30    31    1
    47    40    42    1
    48    40    43    1
