@<TRIPOS>MOLECULE
*****
 35 37 0 0 0
SMALL
GASTEIGER

@<TRIPOS>ATOM
      1 N         141.2341  138.3413  157.9239 N.3     1  UNL1       -0.2705
      2 C         139.8067  138.3463  158.3852 C.3     1  UNL1        0.0739
      3 C         139.4770  138.7220  159.7995 C.3     1  UNL1        0.0394
      4 C         140.5745  139.0926  160.7524 C.3     1  UNL1        0.1017
      5 C         142.0018  139.0876  160.2911 C.3     1  UNL1        0.1490
      6 C         142.3316  138.7120  158.8768 C.3     1  UNL1        0.1037
      7 N         140.2447  139.4683  162.1667 N.am    1  UNL1       -0.2999
      8 C         140.2731  138.4265  163.2455 C.2     1  UNL1        0.2488
      9 O         140.6314  137.0091  162.9101 O.2     1  UNL1       -0.2700
     10 H         140.0096  140.3986  162.3869 H       1  UNL1        0.1498
     11 C         139.9433  138.8022  164.6597 C.ar    1  UNL1        0.0882
     12 C         138.7070  138.2576  165.3116 C.ar    1  UNL1        0.0202
     13 C         138.3772  138.6333  166.7258 C.ar    1  UNL1        0.0709
     14 CL        137.1409  138.0887  167.3776 Cl      1  UNL1       -0.0810
     15 C         139.2837  139.5536  167.4882 C.ar    1  UNL1        0.0553
     16 N         138.9539  139.9293  168.9024 N.pl3   1  UNL1       -0.3563
     17 C         140.5200  140.0982  166.8364 C.ar    1  UNL1        0.0520
     18 C         140.8499  139.7225  165.4221 C.ar    1  UNL1        0.1443
     19 H         138.1424  139.5718  169.3303 H       1  UNL1        0.1424
     20 H         139.5489  140.5333  169.4028 H       1  UNL1        0.1424
     21 O         142.0862  140.2671  164.7704 O.3     1  UNL1       -0.4712
     22 C         142.1332  141.7007  164.3315 C.3     1  UNL1        0.2525
     23 O         143.0993  139.4583  161.2440 O.3     1  UNL1       -0.3505
     24 C         143.7956  138.3923  162.0372 C.3     1  UNL1        0.1741
     25 C         141.5638  137.9657  156.5096 C.3     1  UNL1        0.0722
     26 C         143.2362  132.3523  155.2087 C.2     1  UNL1        0.4050
     27 O         142.3313  131.4676  154.4035 O.2     1  UNL1       -0.2262
     28 N         142.8181  133.7556  155.5339 N.am    1  UNL1       -0.2460
     29 C         143.7231  134.6403  156.3391 C.3     1  UNL1        0.0968
     30 C         143.3050  136.0436  156.6643 C.3     1  UNL1        0.0231
     31 C         141.9819  136.5623  156.1844 C.3     1  UNL1        0.0194
     32 C         141.0769  135.6776  155.3792 C.3     1  UNL1        0.0231
     33 C         141.4950  134.2743  155.0540 C.3     1  UNL1        0.0968
     34 C         144.8484  130.3623  155.6457 C.3     1  UNL1        0.2573
     35 O         144.5593  131.8336  155.6886 O.3     1  UNL1       -0.4304
@<TRIPOS>BOND
     1    34    35    1
     2    35    26    1
     3    26    27    2
     4    26    28   am
     5    28    29    1
     6    29    30    1
     7    30    31    1
     8    31    25    1
     9    25     1    1
    10     1     2    1
    11     2     3    1
    12     3     4    1
    13     4     7    1
    14     7     8   am
    15     8     9    2
    16     8    11    1
    17    11    12   ar
    18    12    13   ar
    19    13    14    1
    20    13    15   ar
    21    15    16    1
    22    15    17   ar
    23    17    18   ar
    24    18    21    1
    25    21    22    1
    26     4     5    1
    27     5    23    1
    28    23    24    1
    29     5     6    1
    30    31    32    1
    31    32    33    1
    32    33    28    1
    33     6     1    1
    34    18    11   ar
    35     7    10    1
    36    16    19    1
    37    16    20    1
@<TRIPOS>MOLECULE
*****
 35 37 0 0 0
SMALL
GASTEIGER

@<TRIPOS>ATOM
      1 N         141.8358  138.0096  158.1842 N.3     1  UNL1       -0.2705
      2 C         142.8807  138.1642  159.2493 C.3     1  UNL1        0.0739
      3 C         142.4861  138.5984  160.6297 C.3     1  UNL1        0.0394
      4 C         141.0465  138.8780  160.9451 C.3     1  UNL1        0.1017
      5 C         140.0016  138.7235  159.8801 C.3     1  UNL1        0.1490
      6 C         140.3963  138.2893  158.4996 C.3     1  UNL1        0.1037
      7 N         140.6519  139.3123  162.3257 N.am    1  UNL1       -0.2999
      8 C         140.4995  138.2947  163.4171 C.2     1  UNL1        0.2488
      9 O         140.7417  136.8428  163.1281 O.2     1  UNL1       -0.2700
     10 H         140.4929  140.2651  162.5154 H       1  UNL1        0.1498
     11 C         140.1048  138.7289  164.7975 C.ar    1  UNL1        0.0882
     12 C         138.8295  138.2258  165.4062 C.ar    1  UNL1        0.0202
     13 C         138.4349  138.6600  166.7866 C.ar    1  UNL1        0.0709
     14 CL        137.1595  138.1569  167.3952 Cl      1  UNL1       -0.0810
     15 C         139.3156  139.5974  167.5585 C.ar    1  UNL1        0.0553
     16 N         138.9209  140.0316  168.9389 N.pl3   1  UNL1       -0.3563
     17 C         140.5909  140.1005  166.9499 C.ar    1  UNL1        0.0520
     18 C         140.9855  139.6662  165.5694 C.ar    1  UNL1        0.1443
     19 H         138.0839  139.7014  169.3384 H       1  UNL1        0.1424
     20 H         139.4990  140.6468  169.4455 H       1  UNL1        0.1424
     21 O         142.2609  140.1693  164.9608 O.3     1  UNL1       -0.4712
     22 C         142.3950  141.6165  164.5896 C.3     1  UNL1        0.2525
     23 O         138.5621  139.0031  160.1956 O.3     1  UNL1       -0.3505
     24 C         137.8917  140.2180  159.6257 C.3     1  UNL1        0.1741
     25 C         142.2305  137.5754  156.8037 C.3     1  UNL1        0.0722
     26 C         142.0048  131.7699  155.3054 C.2     1  UNL1        0.4050
     27 O         142.9224  130.7874  155.9707 O.2     1  UNL1       -0.2262
     28 N         142.0612  133.2213  155.6800 N.am    1  UNL1       -0.2460
     29 C         141.1437  134.2038  155.0147 C.3     1  UNL1        0.0968
     30 C         141.2001  135.6552  155.3892 C.3     1  UNL1        0.0231
     31 C         142.1741  136.1241  156.4291 C.3     1  UNL1        0.0194
     32 C         143.0916  135.1416  157.0945 C.3     1  UNL1        0.0231
     33 C         143.0352  133.6902  156.7199 C.3     1  UNL1        0.0968
     34 C         139.8866  130.4132  154.6558 C.3     1  UNL1        0.2573
     35 O         141.0309  131.3010  154.2655 O.3     1  UNL1       -0.4304
@<TRIPOS>BOND
     1    34    35    1
     2    35    26    1
     3    26    27    2
     4    26    28   am
     5    28    29    1
     6    29    30    1
     7    30    31    1
     8    31    25    1
     9    25     1    1
    10     1     2    1
    11     2     3    1
    12     3     4    1
    13     4     7    1
    14     7     8   am
    15     8     9    2
    16     8    11    1
    17    11    12   ar
    18    12    13   ar
    19    13    14    1
    20    13    15   ar
    21    15    16    1
    22    15    17   ar
    23    17    18   ar
    24    18    21    1
    25    21    22    1
    26     4     5    1
    27     5    23    1
    28    23    24    1
    29     5     6    1
    30    31    32    1
    31    32    33    1
    32    33    28    1
    33     6     1    1
    34    18    11   ar
    35     7    10    1
    36    16    19    1
    37    16    20    1
@<TRIPOS>MOLECULE
*****
 35 37 0 0 0
SMALL
GASTEIGER

@<TRIPOS>ATOM
      1 N         139.6436  140.6279  159.7969 N.3     1  UNL1       -0.2705
      2 C         140.5640  139.7938  160.6380 C.3     1  UNL1        0.0739
      3 C         140.4344  139.8088  162.1323 C.3     1  UNL1        0.0394
      4 C         139.3844  140.6579  162.7856 C.3     1  UNL1        0.1017
      5 C         138.4641  141.4919  161.9446 C.3     1  UNL1        0.1490
      6 C         138.5937  141.4769  160.4502 C.3     1  UNL1        0.1037
      7 N         139.2548  140.6728  164.2800 N.am    1  UNL1       -0.2999
      8 C         140.3065  141.3383  165.1173 C.2     1  UNL1        0.2488
      9 O         141.4877  141.9887  164.4604 O.2     1  UNL1       -0.2700
     10 H         138.4796  140.2459  164.7111 H       1  UNL1        0.1498
     11 C         140.1769  141.3532  166.6116 C.ar    1  UNL1        0.0882
     12 C         140.7218  142.5070  167.4003 C.ar    1  UNL1        0.0202
     13 C         140.5922  142.5219  168.8945 C.ar    1  UNL1        0.0709
     14 CL        141.1372  143.6757  169.6831 Cl      1  UNL1       -0.0810
     15 C         139.9176  141.3831  169.6003 C.ar    1  UNL1        0.0553
     16 N         139.7880  141.3981  171.0946 N.pl3   1  UNL1       -0.3563
     17 C         139.3727  140.2294  168.8117 C.ar    1  UNL1        0.0520
     18 C         139.5023  140.2144  167.3174 C.ar    1  UNL1        0.1443
     19 H         140.1457  142.1553  171.6121 H       1  UNL1        0.1424
     20 H         139.3453  140.6506  171.5577 H       1  UNL1        0.1424
     21 O         138.9573  139.0607  166.5288 O.3     1  UNL1       -0.4712
     22 C         137.6907  138.3858  166.9650 C.3     1  UNL1        0.2525
     23 O         137.4142  142.3409  162.5979 O.3     1  UNL1       -0.3505
     24 C         137.7105  143.7719  162.9364 C.3     1  UNL1        0.1741
     25 C         139.7732  140.6129  158.3027 C.3     1  UNL1        0.0722
     26 C         143.7428  136.9628  155.6721 C.2     1  UNL1        0.4050
     27 O         145.1304  137.4508  155.3784 O.2     1  UNL1       -0.2262
     28 N         142.7504  137.8753  156.3298 N.am    1  UNL1       -0.2460
     29 C         141.3627  137.3874  156.6235 C.3     1  UNL1        0.0968
     30 C         140.3704  138.2999  157.2812 C.3     1  UNL1        0.0231
     31 C         140.7656  139.7004  157.6450 C.3     1  UNL1        0.0194
     32 C         142.1532  140.1883  157.3513 C.3     1  UNL1        0.0231
     33 C         143.1456  139.2758  156.6936 C.3     1  UNL1        0.0968
     34 C         143.7258  134.4197  156.2034 C.3     1  UNL1        0.2573
     35 O         143.3475  135.5624  155.3082 O.3     1  UNL1       -0.4304
@<TRIPOS>BOND
     1    34    35    1
     2    35    26    1
     3    26    27    2
     4    26    28   am
     5    28    29    1
     6    29    30    1
     7    30    31    1
     8    31    25    1
     9    25     1    1
    10     1     2    1
    11     2     3    1
    12     3     4    1
    13     4     7    1
    14     7     8   am
    15     8     9    2
    16     8    11    1
    17    11    12   ar
    18    12    13   ar
    19    13    14    1
    20    13    15   ar
    21    15    16    1
    22    15    17   ar
    23    17    18   ar
    24    18    21    1
    25    21    22    1
    26     4     5    1
    27     5    23    1
    28    23    24    1
    29     5     6    1
    30    31    32    1
    31    32    33    1
    32    33    28    1
    33     6     1    1
    34    18    11   ar
    35     7    10    1
    36    16    19    1
    37    16    20    1
@<TRIPOS>MOLECULE
*****
 35 37 0 0 0
SMALL
GASTEIGER

@<TRIPOS>ATOM
      1 N         138.7085  138.7374  163.2459 N.3     1  UNL1       -0.2705
      2 C         138.8141  138.0632  161.9101 C.3     1  UNL1        0.0739
      3 C         138.4258  138.8024  160.6641 C.3     1  UNL1        0.0394
      4 C         137.9319  140.2160  160.7537 C.3     1  UNL1        0.1017
      5 C         137.8264  140.8902  162.0894 C.3     1  UNL1        0.1490
      6 C         138.2147  140.1510  163.3356 C.3     1  UNL1        0.1037
      7 N         137.5436  140.9552  159.5076 N.am    1  UNL1       -0.2999
      8 C         138.5953  141.6279  158.6761 C.2     1  UNL1        0.2488
      9 O         140.0353  141.5614  159.0907 O.2     1  UNL1       -0.2700
     10 H         136.5985  140.9989  159.2355 H       1  UNL1        0.1498
     11 C         138.2070  142.3671  157.4301 C.ar    1  UNL1        0.0882
     12 C         138.9682  143.5917  157.0165 C.ar    1  UNL1        0.0202
     13 C         138.5798  144.3309  155.7704 C.ar    1  UNL1        0.0709
     14 CL        139.3410  145.5555  155.3568 Cl      1  UNL1       -0.0810
     15 C         137.4303  143.8456  154.9379 C.ar    1  UNL1        0.0553
     16 N         137.0420  144.5848  153.6918 N.pl3   1  UNL1       -0.3563
     17 C         136.6691  142.6211  155.3515 C.ar    1  UNL1        0.0520
     18 C         137.0574  141.8818  156.5976 C.ar    1  UNL1        0.1443
     19 H         137.5416  145.3885  153.4204 H       1  UNL1        0.1424
     20 H         136.2875  144.2663  153.1454 H       1  UNL1        0.1424
     21 O         136.2963  140.6573  157.0111 O.3     1  UNL1       -0.4712
     22 C         134.9231  140.4067  156.4620 C.3     1  UNL1        0.2525
     23 O         137.3325  142.3037  162.1791 O.3     1  UNL1       -0.3505
     24 C         137.7910  143.1887  163.3002 C.3     1  UNL1        0.1741
     25 C         139.0968  137.9982  164.4920 C.3     1  UNL1        0.0722
     26 C         141.4089  140.9841  169.1544 C.2     1  UNL1        0.4050
     27 O         142.8759  141.2943  169.1935 O.2     1  UNL1       -0.2262
     28 N         140.8309  140.2376  167.9888 N.am    1  UNL1       -0.2460
     29 C         139.3638  139.9274  167.9498 C.3     1  UNL1        0.0968
     30 C         138.7858  139.1809  166.7842 C.3     1  UNL1        0.0231
     31 C         139.6748  138.7447  165.6576 C.3     1  UNL1        0.0194
     32 C         141.1419  139.0549  165.6966 C.3     1  UNL1        0.0231
     33 C         141.7199  139.8014  166.8622 C.3     1  UNL1        0.0968
     34 C         139.9937  142.8245  170.3207 C.3     1  UNL1        0.2573
     35 O         140.5199  141.4204  170.2810 O.3     1  UNL1       -0.4304
@<TRIPOS>BOND
     1    34    35    1
     2    35    26    1
     3    26    27    2
     4    26    28   am
     5    28    29    1
     6    29    30    1
     7    30    31    1
     8    31    25    1
     9    25     1    1
    10     1     2    1
    11     2     3    1
    12     3     4    1
    13     4     7    1
    14     7     8   am
    15     8     9    2
    16     8    11    1
    17    11    12   ar
    18    12    13   ar
    19    13    14    1
    20    13    15   ar
    21    15    16    1
    22    15    17   ar
    23    17    18   ar
    24    18    21    1
    25    21    22    1
    26     4     5    1
    27     5    23    1
    28    23    24    1
    29     5     6    1
    30    31    32    1
    31    32    33    1
    32    33    28    1
    33     6     1    1
    34    18    11   ar
    35     7    10    1
    36    16    19    1
    37    16    20    1
@<TRIPOS>MOLECULE
*****
 35 37 0 0 0
SMALL
GASTEIGER

@<TRIPOS>ATOM
      1 N         142.1928  138.2695  159.5178 N.3     1  UNL1       -0.2705
      2 C         143.1809  137.8722  160.5742 C.3     1  UNL1        0.0739
      3 C         142.7993  137.9441  162.0231 C.3     1  UNL1        0.0394
      4 C         141.4297  138.4132  162.4156 C.3     1  UNL1        0.1017
      5 C         140.4417  138.8105  161.3593 C.3     1  UNL1        0.1490
      6 C         140.8232  138.7387  159.9103 C.3     1  UNL1        0.1037
      7 N         141.0482  138.4851  163.8645 N.am    1  UNL1       -0.2999
      8 C         141.4394  139.6784  164.6848 C.2     1  UNL1        0.2488
      9 O         142.2121  140.7999  164.0563 O.2     1  UNL1       -0.2700
     10 H         140.5410  137.7490  164.2771 H       1  UNL1        0.1498
     11 C         141.0578  139.7502  166.1337 C.ar    1  UNL1        0.0882
     12 C         142.1234  139.8047  167.1881 C.ar    1  UNL1        0.0202
     13 C         141.7419  139.8765  168.6369 C.ar    1  UNL1        0.0709
     14 CL        142.8074  139.9310  169.6912 Cl      1  UNL1       -0.0810
     15 C         140.2948  139.8938  169.0315 C.ar    1  UNL1        0.0553
     16 N         139.9133  139.9656  170.4804 N.pl3   1  UNL1       -0.3563
     17 C         139.2292  139.8393  167.9772 C.ar    1  UNL1        0.0520
     18 C         139.6108  139.7675  166.5282 C.ar    1  UNL1        0.1443
     19 H         140.6126  140.0013  171.1724 H       1  UNL1        0.1424
     20 H         138.9635  139.9769  170.7393 H       1  UNL1        0.1424
     21 O         138.5452  139.7130  165.4739 O.3     1  UNL1       -0.4712
     22 C         138.1431  140.9629  164.7487 C.3     1  UNL1        0.2525
     23 O         139.0720  139.2797  161.7518 O.3     1  UNL1       -0.3505
     24 C         137.9313  138.3067  161.8006 C.3     1  UNL1        0.1741
     25 C         142.5743  138.1977  158.0690 C.3     1  UNL1        0.0722
     26 C         142.1435  132.9973  155.1075 C.2     1  UNL1        0.4050
     27 O         141.1087  132.8286  154.0348 O.2     1  UNL1       -0.2262
     28 N         142.2512  134.2974  155.8479 N.am    1  UNL1       -0.2460
     29 C         143.2860  134.4661  156.9206 C.3     1  UNL1        0.0968
     30 C         143.3937  135.7662  157.6609 C.3     1  UNL1        0.0231
     31 C         142.4666  136.8976  157.3286 C.3     1  UNL1        0.0194
     32 C         141.4319  136.7289  156.2559 C.3     1  UNL1        0.0231
     33 C         141.3242  135.4288  155.5155 C.3     1  UNL1        0.0968
     34 C         142.7241  130.9122  156.5446 C.3     1  UNL1        0.2573
     35 O         143.0705  131.8659  155.4398 O.3     1  UNL1       -0.4304
@<TRIPOS>BOND
     1    34    35    1
     2    35    26    1
     3    26    27    2
     4    26    28   am
     5    28    29    1
     6    29    30    1
     7    30    31    1
     8    31    25    1
     9    25     1    1
    10     1     2    1
    11     2     3    1
    12     3     4    1
    13     4     7    1
    14     7     8   am
    15     8     9    2
    16     8    11    1
    17    11    12   ar
    18    12    13   ar
    19    13    14    1
    20    13    15   ar
    21    15    16    1
    22    15    17   ar
    23    17    18   ar
    24    18    21    1
    25    21    22    1
    26     4     5    1
    27     5    23    1
    28    23    24    1
    29     5     6    1
    30    31    32    1
    31    32    33    1
    32    33    28    1
    33     6     1    1
    34    18    11   ar
    35     7    10    1
    36    16    19    1
    37    16    20    1
@<TRIPOS>MOLECULE
*****
 35 37 0 0 0
SMALL
GASTEIGER

@<TRIPOS>ATOM
      1 N         142.6070  138.8885  160.5194 N.3     1  UNL1       -0.2705
      2 C         143.1163  140.1372  161.1764 C.3     1  UNL1        0.0739
      3 C         142.6976  140.4719  162.5773 C.3     1  UNL1        0.0394
      4 C         141.7697  139.5579  163.3214 C.3     1  UNL1        0.1017
      5 C         141.2604  138.3093  162.6645 C.3     1  UNL1        0.1490
      6 C         141.6790  137.9746  161.2635 C.3     1  UNL1        0.1037
      7 N         141.3510  139.8927  164.7224 N.am    1  UNL1       -0.2999
      8 C         142.0235  139.2260  165.8856 C.2     1  UNL1        0.2488
      9 O         143.1146  138.2245  165.6480 O.2     1  UNL1       -0.2700
     10 H         140.6348  140.5500  164.8784 H       1  UNL1        0.1498
     11 C         141.6048  139.5607  167.2866 C.ar    1  UNL1        0.0882
     12 C         142.6269  139.6095  168.3834 C.ar    1  UNL1        0.0202
     13 C         142.2082  139.9442  169.7843 C.ar    1  UNL1        0.0709
     14 CL        143.2302  139.9929  170.8811 Cl      1  UNL1       -0.0810
     15 C         140.7675  140.2303  170.0885 C.ar    1  UNL1        0.0553
     16 N         140.3488  140.5650  171.4894 N.pl3   1  UNL1       -0.3563
     17 C         139.7454  140.1816  168.9917 C.ar    1  UNL1        0.0520
     18 C         140.1641  139.8468  167.5907 C.ar    1  UNL1        0.1443
     19 H         141.0196  140.5970  172.2093 H       1  UNL1        0.1424
     20 H         139.4032  140.7528  171.6890 H       1  UNL1        0.1424
     21 O         139.1420  139.7981  166.4939 O.3     1  UNL1       -0.4712
     22 C         138.0000  138.8290  166.5754 C.3     1  UNL1        0.2525
     23 O         140.3324  137.3954  163.4085 O.3     1  UNL1       -0.3505
     24 C         138.8480  137.5451  163.2530 C.3     1  UNL1        0.1741
     25 C         143.0257  138.5538  159.1185 C.3     1  UNL1        0.0722
     26 C         138.8743  137.4533  154.9286 C.2     1  UNL1        0.4050
     27 O         139.1993  136.5620  153.7668 O.2     1  UNL1       -0.2262
     28 N         139.9122  137.7284  155.9761 N.am    1  UNL1       -0.2460
     29 C         139.5872  138.6197  157.1379 C.3     1  UNL1        0.0968
     30 C         140.6251  138.8949  158.1854 C.3     1  UNL1        0.0231
     31 C         141.9879  138.2787  158.0710 C.3     1  UNL1        0.0194
     32 C         142.3128  137.3874  156.9092 C.3     1  UNL1        0.0231
     33 C         141.2749  137.1123  155.8617 C.3     1  UNL1        0.0968
     34 C         136.9338  138.8320  153.8877 C.3     1  UNL1        0.2573
     35 O         137.5116  138.0695  155.0430 O.3     1  UNL1       -0.4304
@<TRIPOS>BOND
     1    34    35    1
     2    35    26    1
     3    26    27    2
     4    26    28   am
     5    28    29    1
     6    29    30    1
     7    30    31    1
     8    31    25    1
     9    25     1    1
    10     1     2    1
    11     2     3    1
    12     3     4    1
    13     4     7    1
    14     7     8   am
    15     8     9    2
    16     8    11    1
    17    11    12   ar
    18    12    13   ar
    19    13    14    1
    20    13    15   ar
    21    15    16    1
    22    15    17   ar
    23    17    18   ar
    24    18    21    1
    25    21    22    1
    26     4     5    1
    27     5    23    1
    28    23    24    1
    29     5     6    1
    30    31    32    1
    31    32    33    1
    32    33    28    1
    33     6     1    1
    34    18    11   ar
    35     7    10    1
    36    16    19    1
    37    16    20    1
@<TRIPOS>MOLECULE
*****
 35 37 0 0 0
SMALL
GASTEIGER

@<TRIPOS>ATOM
      1 N         142.8996  142.6686  160.1549 N.3     1  UNL1       -0.2705
      2 C         141.7278  141.7429  160.2969 C.3     1  UNL1        0.0739
      3 C         141.3179  141.2547  161.6547 C.3     1  UNL1        0.0394
      4 C         142.0798  141.6921  162.8705 C.3     1  UNL1        0.1017
      5 C         143.2515  142.6177  162.7286 C.3     1  UNL1        0.1490
      6 C         143.6614  143.1060  161.3707 C.3     1  UNL1        0.1037
      7 N         141.6699  141.2037  164.2283 N.am    1  UNL1       -0.2999
      8 C         140.7349  142.0218  165.0688 C.2     1  UNL1        0.2488
      9 O         140.2097  143.3282  164.5515 O.2     1  UNL1       -0.2700
     10 H         142.0146  140.3463  164.5678 H       1  UNL1        0.1498
     11 C         140.3250  141.5335  166.4265 C.ar    1  UNL1        0.0882
     12 C         140.6063  142.3686  167.6404 C.ar    1  UNL1        0.0202
     13 C         140.1965  141.8803  168.9982 C.ar    1  UNL1        0.0709
     14 CL        140.4778  142.7154  170.2120 Cl      1  UNL1       -0.0810
     15 C         139.5053  140.5568  169.1421 C.ar    1  UNL1        0.0553
     16 N         139.0954  140.0685  170.4998 N.pl3   1  UNL1       -0.3563
     17 C         139.2239  139.7217  167.9283 C.ar    1  UNL1        0.0520
     18 C         139.6338  140.2100  166.5705 C.ar    1  UNL1        0.1443
     19 H         139.2801  140.6166  171.2965 H       1  UNL1        0.1424
     20 H         138.6418  139.1999  170.5943 H       1  UNL1        0.1424
     21 O         139.3525  139.3749  165.3567 O.3     1  UNL1       -0.4712
     22 C         140.1094  138.0995  165.1319 C.3     1  UNL1        0.2525
     23 O         144.0134  143.0551  163.9444 O.3     1  UNL1       -0.3505
     24 C         143.9101  144.4724  164.4245 C.3     1  UNL1        0.1741
     25 C         143.3094  143.1569  158.7971 C.3     1  UNL1        0.0722
     26 C         139.7684  146.9423  155.7752 C.2     1  UNL1        0.4050
     27 O         138.8410  147.8572  156.5188 O.2     1  UNL1       -0.2262
     28 N         140.6536  145.9959  156.5307 N.am    1  UNL1       -0.2460
     29 C         141.5810  145.0810  155.7871 C.3     1  UNL1        0.0968
     30 C         142.4662  144.1347  156.5426 C.3     1  UNL1        0.0231
     31 C         142.4242  144.1032  158.0417 C.3     1  UNL1        0.0194
     32 C         141.4968  145.0182  158.7852 C.3     1  UNL1        0.0231
     33 C         140.6116  145.9645  158.0297 C.3     1  UNL1        0.0968
     34 C         140.4427  148.1349  153.5678 C.3     1  UNL1        0.2573
     35 O         139.8104  146.9737  154.2762 O.3     1  UNL1       -0.4304
@<TRIPOS>BOND
     1    34    35    1
     2    35    26    1
     3    26    27    2
     4    26    28   am
     5    28    29    1
     6    29    30    1
     7    30    31    1
     8    31    25    1
     9    25     1    1
    10     1     2    1
    11     2     3    1
    12     3     4    1
    13     4     7    1
    14     7     8   am
    15     8     9    2
    16     8    11    1
    17    11    12   ar
    18    12    13   ar
    19    13    14    1
    20    13    15   ar
    21    15    16    1
    22    15    17   ar
    23    17    18   ar
    24    18    21    1
    25    21    22    1
    26     4     5    1
    27     5    23    1
    28    23    24    1
    29     5     6    1
    30    31    32    1
    31    32    33    1
    32    33    28    1
    33     6     1    1
    34    18    11   ar
    35     7    10    1
    36    16    19    1
    37    16    20    1
@<TRIPOS>MOLECULE
*****
 35 37 0 0 0
SMALL
GASTEIGER

@<TRIPOS>ATOM
      1 N         139.1364  138.2716  162.4259 N.3     1  UNL1       -0.2705
      2 C         137.7721  138.8698  162.2499 C.3     1  UNL1        0.0739
      3 C         137.3943  139.5050  160.9447 C.3     1  UNL1        0.0394
      4 C         138.3808  139.5422  159.8153 C.3     1  UNL1        0.1017
      5 C         139.7451  138.9441  159.9912 C.3     1  UNL1        0.1490
      6 C         140.1229  138.3088  161.2965 C.3     1  UNL1        0.1037
      7 N         138.0030  140.1775  158.5100 N.am    1  UNL1       -0.2999
      8 C         138.0986  141.6652  158.3445 C.2     1  UNL1        0.2488
      9 O         138.5721  142.5177  159.4843 O.2     1  UNL1       -0.2700
     10 H         137.6922  139.6179  157.7620 H       1  UNL1        0.1498
     11 C         137.7208  142.3004  157.0393 C.ar    1  UNL1        0.0882
     12 C         138.5041  143.4694  156.5195 C.ar    1  UNL1        0.0202
     13 C         138.1262  144.1046  155.2143 C.ar    1  UNL1        0.0709
     14 CL        138.9095  145.2734  154.6945 Cl      1  UNL1       -0.0810
     15 C         136.9651  143.5709  154.4287 C.ar    1  UNL1        0.0553
     16 N         136.5873  144.2061  153.1235 N.pl3   1  UNL1       -0.3563
     17 C         136.1819  142.4020  154.9485 C.ar    1  UNL1        0.0520
     18 C         136.5597  141.7667  156.2538 C.ar    1  UNL1        0.1443
     19 H         137.1014  144.9733  152.7824 H       1  UNL1        0.1424
     20 H         135.8252  143.8558  152.6079 H       1  UNL1        0.1424
     21 O         135.7764  140.5979  156.7735 O.3     1  UNL1       -0.4712
     22 C         134.4343  140.2740  156.1871 C.3     1  UNL1        0.2525
     23 O         140.7316  138.9812  158.8619 O.3     1  UNL1       -0.3505
     24 C         141.8664  139.9618  158.8893 C.3     1  UNL1        0.1741
     25 C         139.5142  137.6364  163.7311 C.3     1  UNL1        0.0722
     26 C         140.1217  141.0191  168.6492 C.2     1  UNL1        0.4050
     27 O         139.0830  140.9648  169.7299 O.2     1  UNL1       -0.2262
     28 N         139.9699  140.1734  167.4197 N.am    1  UNL1       -0.2460
     29 C         141.0087  140.2278  166.3390 C.3     1  UNL1        0.0968
     30 C         140.8568  139.3821  165.1095 C.3     1  UNL1        0.0231
     31 C         139.6661  138.4821  164.9606 C.3     1  UNL1        0.0194
     32 C         138.6273  138.4277  166.0413 C.3     1  UNL1        0.0231
     33 C         138.7792  139.2734  167.2708 C.3     1  UNL1        0.0968
     34 C         141.2298  143.1334  169.6749 C.3     1  UNL1        0.2573
     35 O         141.3124  141.9192  168.7981 O.3     1  UNL1       -0.4304
@<TRIPOS>BOND
     1    34    35    1
     2    35    26    1
     3    26    27    2
     4    26    28   am
     5    28    29    1
     6    29    30    1
     7    30    31    1
     8    31    25    1
     9    25     1    1
    10     1     2    1
    11     2     3    1
    12     3     4    1
    13     4     7    1
    14     7     8   am
    15     8     9    2
    16     8    11    1
    17    11    12   ar
    18    12    13   ar
    19    13    14    1
    20    13    15   ar
    21    15    16    1
    22    15    17   ar
    23    17    18   ar
    24    18    21    1
    25    21    22    1
    26     4     5    1
    27     5    23    1
    28    23    24    1
    29     5     6    1
    30    31    32    1
    31    32    33    1
    32    33    28    1
    33     6     1    1
    34    18    11   ar
    35     7    10    1
    36    16    19    1
    37    16    20    1
@<TRIPOS>MOLECULE
*****
 35 37 0 0 0
SMALL
GASTEIGER

@<TRIPOS>ATOM
      1 N         138.7994  138.5964  162.8988 N.3     1  UNL1       -0.2705
      2 C         139.2789  138.0228  161.5983 C.3     1  UNL1        0.0739
      3 C         139.1756  138.8308  160.3388 C.3     1  UNL1        0.0394
      4 C         138.5928  140.2123  160.3797 C.3     1  UNL1        0.1017
      5 C         138.1134  140.7859  161.6801 C.3     1  UNL1        0.1490
      6 C         138.2167  139.9779  162.9397 C.3     1  UNL1        0.1037
      7 N         138.4896  141.0204  159.1200 N.am    1  UNL1       -0.2999
      8 C         139.5261  142.0586  158.8079 C.2     1  UNL1        0.2488
      9 O         140.6660  142.2889  159.7553 O.2     1  UNL1       -0.2700
     10 H         137.7414  140.8692  158.4982 H       1  UNL1        0.1498
     11 C         139.4228  142.8665  157.5483 C.ar    1  UNL1        0.0882
     12 C         139.8424  144.3067  157.5445 C.ar    1  UNL1        0.0202
     13 C         139.7391  145.1146  156.2850 C.ar    1  UNL1        0.0709
     14 CL        140.1586  146.5547  156.2812 Cl      1  UNL1       -0.0810
     15 C         139.2162  144.4825  155.0292 C.ar    1  UNL1        0.0553
     16 N         139.1129  145.2904  153.7696 N.pl3   1  UNL1       -0.3563
     17 C         138.7967  143.0424  155.0330 C.ar    1  UNL1        0.0520
     18 C         138.9000  142.2344  156.2926 C.ar    1  UNL1        0.1443
     19 H         139.3882  146.2356  153.7671 H       1  UNL1        0.1424
     20 H         138.7697  144.8755  152.9454 H       1  UNL1        0.1424
     21 O         138.4804  140.7943  156.2963 O.3     1  UNL1       -0.4712
     22 C         139.3364  139.7619  155.6243 C.3     1  UNL1        0.2525
     23 O         137.5306  142.1675  161.7209 O.3     1  UNL1       -0.3505
     24 C         137.6684  143.0033  162.9589 C.3     1  UNL1        0.1741
     25 C         138.9027  137.7884  164.1583 C.3     1  UNL1        0.0722
     26 C         139.4425  140.5492  169.4580 C.2     1  UNL1        0.4050
     27 O         138.3098  140.5143  170.4406 O.2     1  UNL1       -0.2262
     28 N         139.3075  139.8590  168.1330 N.am    1  UNL1       -0.2460
     29 C         140.4402  139.8939  167.1504 C.3     1  UNL1        0.0968
     30 C         140.3053  139.2037  165.8254 C.3     1  UNL1        0.0231
     31 C         139.0376  138.4786  165.4832 C.3     1  UNL1        0.0194
     32 C         137.9049  138.4436  166.4659 C.3     1  UNL1        0.0231
     33 C         138.0399  139.1338  167.7908 C.3     1  UNL1        0.0968
     34 C         141.7507  140.6061  170.6491 C.3     1  UNL1        0.2573
     35 O         140.7101  141.2744  169.8002 O.3     1  UNL1       -0.4304
@<TRIPOS>BOND
     1    34    35    1
     2    35    26    1
     3    26    27    2
     4    26    28   am
     5    28    29    1
     6    29    30    1
     7    30    31    1
     8    31    25    1
     9    25     1    1
    10     1     2    1
    11     2     3    1
    12     3     4    1
    13     4     7    1
    14     7     8   am
    15     8     9    2
    16     8    11    1
    17    11    12   ar
    18    12    13   ar
    19    13    14    1
    20    13    15   ar
    21    15    16    1
    22    15    17   ar
    23    17    18   ar
    24    18    21    1
    25    21    22    1
    26     4     5    1
    27     5    23    1
    28    23    24    1
    29     5     6    1
    30    31    32    1
    31    32    33    1
    32    33    28    1
    33     6     1    1
    34    18    11   ar
    35     7    10    1
    36    16    19    1
    37    16    20    1
