@<TRIPOS>MOLECULE
*****
 39 42 0 0 0
SMALL
GASTEIGER

@<TRIPOS>ATOM
      1 C         141.2423  140.7652  168.2088 C.3     1  UNL1        0.1031
      2 C         143.4790  143.6988  170.7858 C.ar    1  UNL1        0.0532
      3 C         142.0369  143.9412  170.4519 C.ar    1  UNL1        0.0145
      4 C         141.2913  142.9633  169.5929 C.ar    1  UNL1       -0.0014
      5 C         141.9878  141.7431  169.0678 C.ar    1  UNL1       -0.0035
      6 C         143.4299  141.5007  169.4017 C.ar    1  UNL1       -0.0014
      7 C         144.1755  142.4786  170.2607 C.ar    1  UNL1        0.0145
      8 C         145.6729  144.9591  171.3759 C.2     1  UNL1        0.4054
      9 O         146.3759  144.2635  170.2479 O.2     1  UNL1       -0.2261
     10 N         144.2245  144.6767  171.6448 N.am    1  UNL1       -0.2499
     11 H         143.7632  145.1332  172.3851 H       1  UNL1        0.1582
     12 O         146.4185  145.9370  172.2349 O.3     1  UNL1       -0.4345
     13 C         148.7140  146.1910  173.4250 C.3     1  UNL1        0.0513
     14 C         147.4278  145.4444  173.2293 C.3     1  UNL1        0.2102
     15 C         141.7825  140.3860  166.8619 C.ar    1  UNL1       -0.0036
     16 C         142.6710  139.1857  166.7209 C.ar    1  UNL1       -0.0025
     17 C         143.2113  138.8065  165.3740 C.ar    1  UNL1        0.0042
     18 C         142.8631  139.6276  164.1680 C.ar    1  UNL1        0.0536
     19 C         141.9746  140.8279  164.3089 C.ar    1  UNL1        0.0042
     20 C         141.4343  141.2071  165.6559 C.ar    1  UNL1       -0.0025
     21 C         143.4034  139.2484  162.8210 C.2     1  UNL1        0.2490
     22 O         144.6364  139.9188  162.2916 O.2     1  UNL1       -0.2699
     23 N         142.7107  138.1988  162.0034 N.am    1  UNL1       -0.2761
     24 C         143.2510  137.8196  160.6565 C.3     1  UNL1        0.0938
     25 C         142.9015  138.6398  159.4501 C.3     1  UNL1        0.0233
     26 C         141.4777  137.5284  162.5327 C.3     1  UNL1        0.0938
     27 C         140.1277  137.9194  162.0087 C.3     1  UNL1        0.0233
     28 N         139.9564  140.1665  168.6968 N.3     1  UNL1       -0.2644
     29 C         139.5978  140.2431  170.1512 C.3     1  UNL1        0.0901
     30 C         138.3118  139.6444  170.6392 C.3     1  UNL1        0.0900
     31 N         137.3847  138.9690  169.6727 N.3     1  UNL1       -0.2652
     32 C         137.7433  138.8924  168.2182 C.3     1  UNL1        0.0900
     33 C         139.0292  139.4911  167.7302 C.3     1  UNL1        0.0901
     34 C         136.0988  138.3703  170.1606 C.3     1  UNL1        0.1193
     35 C         136.0437  137.7038  171.5033 C.ar    1  UNL1        0.0823
     36 C         135.1676  138.1066  172.6523 C.ar    1  UNL1        0.0530
     37 S         135.4375  137.1693  173.7918 S.2     1  UNL1       -0.0643
     38 C         136.4804  136.1871  173.3471 C.ar    1  UNL1        0.1341
     39 N         136.8551  136.5174  171.9326 N.ar    1  UNL1       -0.2392
@<TRIPOS>BOND
     1    13    14    1
     2    14    12    1
     3    12     8    1
     4     8     9    2
     5     8    10   am
     6    10     2    1
     7     2     3   ar
     8     3     4   ar
     9     4     5   ar
    10     5     1    1
    11     1    15    1
    12    15    16   ar
    13    16    17   ar
    14    17    18   ar
    15    18    21    1
    16    21    22    2
    17    21    23   am
    18    23    24    1
    19    24    25    1
    20    23    26    1
    21    26    27    1
    22    18    19   ar
    23    19    20   ar
    24     1    28    1
    25    28    29    1
    26    29    30    1
    27    30    31    1
    28    31    34    1
    29    34    35    1
    30    35    36   ar
    31    36    37   ar
    32    37    38   ar
    33    38    39   ar
    34    31    32    1
    35    32    33    1
    36     5     6   ar
    37     6     7   ar
    38     7     2   ar
    39    20    15   ar
    40    33    28    1
    41    39    35   ar
    42    10    11    1
@<TRIPOS>MOLECULE
*****
 39 42 0 0 0
SMALL
GASTEIGER

@<TRIPOS>ATOM
      1 C         140.4415  139.3574  158.5438 C.3     1  UNL1        0.1031
      2 C         139.5662  143.3785  156.7231 C.ar    1  UNL1        0.0532
      3 C         140.7936  142.6203  156.3124 C.ar    1  UNL1        0.0145
      4 C         141.0853  141.2800  156.9193 C.ar    1  UNL1       -0.0014
      5 C         140.1497  140.6978  157.9369 C.ar    1  UNL1       -0.0035
      6 C         138.9224  141.4559  158.3477 C.ar    1  UNL1       -0.0014
      7 C         138.6306  142.7962  157.7408 C.ar    1  UNL1        0.0145
      8 C         139.7792  145.9672  156.7770 C.2     1  UNL1        0.4054
      9 O         140.5759  145.8753  158.0447 O.2     1  UNL1       -0.2261
     10 N         139.2744  144.7188  156.1162 N.am    1  UNL1       -0.2499
     11 H         138.7516  144.7791  155.2842 H       1  UNL1        0.1582
     12 O         139.4875  147.3076  156.1701 O.3     1  UNL1       -0.4345
     13 C         139.7608  148.9456  154.1720 C.3     1  UNL1        0.0513
     14 C         139.7598  147.5471  154.7145 C.3     1  UNL1        0.2102
     15 C         140.2266  139.1359  160.0117 C.ar    1  UNL1       -0.0036
     16 C         141.1315  139.7950  161.0101 C.ar    1  UNL1       -0.0025
     17 C         140.9166  139.5735  162.4780 C.ar    1  UNL1        0.0042
     18 C         139.7967  138.6929  162.9475 C.ar    1  UNL1        0.0536
     19 C         138.8917  138.0339  161.9492 C.ar    1  UNL1        0.0042
     20 C         139.1066  138.2554  160.4813 C.ar    1  UNL1       -0.0025
     21 C         139.5818  138.4715  164.4155 C.2     1  UNL1        0.2490
     22 O         140.2343  137.3083  165.1019 O.2     1  UNL1       -0.2699
     23 N         138.7144  139.4132  165.1970 N.am    1  UNL1       -0.2761
     24 C         138.4995  139.1917  166.6648 C.3     1  UNL1        0.0938
     25 C         137.4641  138.2118  167.1318 C.3     1  UNL1        0.0233
     26 C         138.0618  140.5764  164.5106 C.3     1  UNL1        0.0938
     27 C         138.6414  141.9526  164.6528 C.3     1  UNL1        0.0233
     28 N         140.9482  138.2385  157.6829 N.3     1  UNL1       -0.2644
     29 C         142.3450  137.7238  157.8672 C.3     1  UNL1        0.0901
     30 C         142.8517  136.6048  157.0062 C.3     1  UNL1        0.0900
     31 N         141.9617  136.0007  155.9608 N.3     1  UNL1       -0.2652
     32 C         140.5649  136.5155  155.7764 C.3     1  UNL1        0.0900
     33 C         140.0582  137.6344  156.6374 C.3     1  UNL1        0.0901
     34 C         142.4684  134.8818  155.0998 C.3     1  UNL1        0.1193
     35 C         142.8673  133.5772  155.7233 C.ar    1  UNL1        0.0823
     36 C         144.2623  133.1648  156.0892 C.ar    1  UNL1        0.0530
     37 S         144.1984  131.7886  156.6825 S.2     1  UNL1       -0.0643
     38 C         142.7638  131.3504  156.6833 C.ar    1  UNL1        0.1341
     39 N         141.9411  132.4558  156.0905 N.ar    1  UNL1       -0.2392
@<TRIPOS>BOND
     1    13    14    1
     2    14    12    1
     3    12     8    1
     4     8     9    2
     5     8    10   am
     6    10     2    1
     7     2     3   ar
     8     3     4   ar
     9     4     5   ar
    10     5     1    1
    11     1    15    1
    12    15    16   ar
    13    16    17   ar
    14    17    18   ar
    15    18    21    1
    16    21    22    2
    17    21    23   am
    18    23    24    1
    19    24    25    1
    20    23    26    1
    21    26    27    1
    22    18    19   ar
    23    19    20   ar
    24     1    28    1
    25    28    29    1
    26    29    30    1
    27    30    31    1
    28    31    34    1
    29    34    35    1
    30    35    36   ar
    31    36    37   ar
    32    37    38   ar
    33    38    39   ar
    34    31    32    1
    35    32    33    1
    36     5     6   ar
    37     6     7   ar
    38     7     2   ar
    39    20    15   ar
    40    33    28    1
    41    39    35   ar
    42    10    11    1
@<TRIPOS>MOLECULE
*****
 39 42 0 0 0
SMALL
GASTEIGER

@<TRIPOS>ATOM
      1 C         140.3984  139.4872  158.6866 C.3     1  UNL1        0.1031
      2 C         139.9637  139.0370  163.1428 C.ar    1  UNL1        0.0532
      3 C         140.8850  140.0786  162.5806 C.ar    1  UNL1        0.0145
      4 C         141.0299  140.2287  161.0951 C.ar    1  UNL1       -0.0014
      5 C         140.2535  139.3371  160.1720 C.ar    1  UNL1       -0.0035
      6 C         139.3322  138.2955  160.7342 C.ar    1  UNL1       -0.0014
      7 C         139.1873  138.1455  162.2197 C.ar    1  UNL1        0.0145
      8 C         138.7566  139.6532  165.3594 C.2     1  UNL1        0.4054
      9 O         137.8392  140.5695  164.6051 O.2     1  UNL1       -0.2261
     10 N         139.8188  138.8870  164.6283 N.am    1  UNL1       -0.2499
     11 H         140.4208  138.2856  165.1233 H       1  UNL1        0.1582
     12 O         138.6117  139.5031  166.8448 O.3     1  UNL1       -0.4345
     13 C         139.3823  140.3507  169.1768 C.3     1  UNL1        0.0513
     14 C         139.7004  139.9854  167.7571 C.3     1  UNL1        0.2102
     15 C         140.0477  140.7876  158.0264 C.ar    1  UNL1       -0.0036
     16 C         138.8070  141.5254  158.4346 C.ar    1  UNL1       -0.0025
     17 C         138.4563  142.8258  157.7744 C.ar    1  UNL1        0.0042
     18 C         139.3462  143.3885  156.7059 C.ar    1  UNL1        0.0536
     19 C         140.5868  142.6508  156.2977 C.ar    1  UNL1        0.0042
     20 C         140.9376  141.3503  156.9579 C.ar    1  UNL1       -0.0025
     21 C         138.9954  144.6889  156.0457 C.2     1  UNL1        0.2490
     22 O         138.0598  144.7065  154.8734 O.2     1  UNL1       -0.2699
     23 N         139.5802  145.9718  156.5578 N.am    1  UNL1       -0.2761
     24 C         139.2295  147.2721  155.8976 C.3     1  UNL1        0.0938
     25 C         139.9621  147.7084  154.6635 C.3     1  UNL1        0.0233
     26 C         140.5159  145.9542  157.7301 C.3     1  UNL1        0.0938
     27 C         141.9989  145.9364  157.5059 C.3     1  UNL1        0.0233
     28 N         140.8940  138.3369  157.8613 N.3     1  UNL1       -0.2644
     29 C         142.2927  137.8279  158.0476 C.3     1  UNL1        0.0901
     30 C         142.7883  136.6775  157.2224 C.3     1  UNL1        0.0900
     31 N         141.8853  136.0361  156.2108 N.3     1  UNL1       -0.2652
     32 C         140.4866  136.5452  156.0245 C.3     1  UNL1        0.0900
     33 C         139.9910  137.6955  156.8497 C.3     1  UNL1        0.0901
     34 C         142.3809  134.8857  155.3855 C.3     1  UNL1        0.1193
     35 C         142.8581  133.6320  156.0566 C.ar    1  UNL1        0.0823
     36 C         144.1905  133.4380  156.7176 C.ar    1  UNL1        0.0530
     37 S         144.2425  132.0382  157.2541 S.2     1  UNL1       -0.0643
     38 C         142.9422  131.3669  156.9246 C.ar    1  UNL1        0.1341
     39 N         142.0865  132.3519  156.1845 N.ar    1  UNL1       -0.2392
@<TRIPOS>BOND
     1    13    14    1
     2    14    12    1
     3    12     8    1
     4     8     9    2
     5     8    10   am
     6    10     2    1
     7     2     3   ar
     8     3     4   ar
     9     4     5   ar
    10     5     1    1
    11     1    15    1
    12    15    16   ar
    13    16    17   ar
    14    17    18   ar
    15    18    21    1
    16    21    22    2
    17    21    23   am
    18    23    24    1
    19    24    25    1
    20    23    26    1
    21    26    27    1
    22    18    19   ar
    23    19    20   ar
    24     1    28    1
    25    28    29    1
    26    29    30    1
    27    30    31    1
    28    31    34    1
    29    34    35    1
    30    35    36   ar
    31    36    37   ar
    32    37    38   ar
    33    38    39   ar
    34    31    32    1
    35    32    33    1
    36     5     6   ar
    37     6     7   ar
    38     7     2   ar
    39    20    15   ar
    40    33    28    1
    41    39    35   ar
    42    10    11    1
@<TRIPOS>MOLECULE
*****
 39 42 0 0 0
SMALL
GASTEIGER

@<TRIPOS>ATOM
      1 C         140.5135  140.2816  158.1116 C.3     1  UNL1        0.1031
      2 C         144.4246  141.2284  156.0974 C.ar    1  UNL1        0.0532
      3 C         143.4291  142.3208  156.3535 C.ar    1  UNL1        0.0145
      4 C         142.1254  142.0052  157.0249 C.ar    1  UNL1       -0.0014
      5 C         141.8172  140.5972  157.4402 C.ar    1  UNL1       -0.0035
      6 C         142.8127  139.5049  157.1842 C.ar    1  UNL1       -0.0014
      7 C         144.1164  139.8205  156.5128 C.ar    1  UNL1        0.0145
      8 C         146.8030  142.2708  156.1789 C.2     1  UNL1        0.4054
      9 O         146.5741  142.6820  157.6032 O.2     1  UNL1       -0.2261
     10 N         145.7283  141.5440  155.4260 N.am    1  UNL1       -0.2499
     11 H         145.8786  141.2742  154.4912 H       1  UNL1        0.1582
     12 O         148.1067  142.5864  155.5075 O.3     1  UNL1       -0.4345
     13 C         150.5358  141.8982  154.8940 C.3     1  UNL1        0.0513
     14 C         149.1764  141.5387  155.4164 C.3     1  UNL1        0.2102
     15 C         140.4815  139.9697  159.5784 C.ar    1  UNL1       -0.0036
     16 C         139.8530  138.6960  160.0608 C.ar    1  UNL1       -0.0025
     17 C         139.8210  138.3840  161.5277 C.ar    1  UNL1        0.0042
     18 C         140.4175  139.3458  162.5122 C.ar    1  UNL1        0.0536
     19 C         141.0459  140.6195  162.0298 C.ar    1  UNL1        0.0042
     20 C         141.0779  140.9315  160.5629 C.ar    1  UNL1       -0.0025
     21 C         140.3854  139.0339  163.9791 C.2     1  UNL1        0.2490
     22 O         141.5198  138.2831  164.6111 O.2     1  UNL1       -0.2699
     23 N         139.2190  139.4727  164.8139 N.am    1  UNL1       -0.2761
     24 C         139.1870  139.1607  166.2807 C.3     1  UNL1        0.0938
     25 C         137.9028  138.7363  166.9294 C.3     1  UNL1        0.0233
     26 C         138.0847  140.2235  164.1818 C.3     1  UNL1        0.0938
     27 C         138.0535  141.7221  164.2380 C.3     1  UNL1        0.0233
     28 N         139.2418  140.2779  157.3162 N.3     1  UNL1       -0.2644
     29 C         138.0654  141.0852  157.7790 C.3     1  UNL1        0.0901
     30 C         136.7936  141.0815  156.9835 C.3     1  UNL1        0.0900
     31 N         136.6984  140.2705  155.7252 N.3     1  UNL1       -0.2652
     32 C         137.8749  139.4632  155.2624 C.3     1  UNL1        0.0900
     33 C         139.1466  139.4669  156.0578 C.3     1  UNL1        0.0901
     34 C         135.4267  140.2668  154.9297 C.3     1  UNL1        0.1193
     35 C         134.1144  140.0246  155.6146 C.ar    1  UNL1        0.0823
     36 C         132.9436  140.9622  155.6339 C.ar    1  UNL1        0.0530
     37 S         131.8480  140.3194  156.4317 S.2     1  UNL1       -0.0643
     38 C         132.3416  138.9845  156.9055 C.ar    1  UNL1        0.1341
     39 N         133.7423  138.8022  156.4005 N.ar    1  UNL1       -0.2392
@<TRIPOS>BOND
     1    13    14    1
     2    14    12    1
     3    12     8    1
     4     8     9    2
     5     8    10   am
     6    10     2    1
     7     2     3   ar
     8     3     4   ar
     9     4     5   ar
    10     5     1    1
    11     1    15    1
    12    15    16   ar
    13    16    17   ar
    14    17    18   ar
    15    18    21    1
    16    21    22    2
    17    21    23   am
    18    23    24    1
    19    24    25    1
    20    23    26    1
    21    26    27    1
    22    18    19   ar
    23    19    20   ar
    24     1    28    1
    25    28    29    1
    26    29    30    1
    27    30    31    1
    28    31    34    1
    29    34    35    1
    30    35    36   ar
    31    36    37   ar
    32    37    38   ar
    33    38    39   ar
    34    31    32    1
    35    32    33    1
    36     5     6   ar
    37     6     7   ar
    38     7     2   ar
    39    20    15   ar
    40    33    28    1
    41    39    35   ar
    42    10    11    1
@<TRIPOS>MOLECULE
*****
 39 42 0 0 0
SMALL
GASTEIGER

@<TRIPOS>ATOM
      1 C         142.6423  137.7931  157.2465 C.3     1  UNL1        0.1031
      2 C         141.1219  138.8613  161.3450 C.ar    1  UNL1        0.0532
      3 C         140.1835  138.8557  160.1749 C.ar    1  UNL1        0.0145
      4 C         140.6903  138.4997  158.8087 C.ar    1  UNL1       -0.0014
      5 C         142.1355  138.1492  158.6127 C.ar    1  UNL1       -0.0035
      6 C         143.0739  138.1547  159.7829 C.ar    1  UNL1       -0.0014
      7 C         142.5671  138.5107  161.1490 C.ar    1  UNL1        0.0145
      8 C         140.4832  138.1556  163.7625 C.2     1  UNL1        0.4054
      9 O         140.8582  136.7377  163.4476 O.2     1  UNL1       -0.2261
     10 N         140.6151  139.2173  162.7112 N.am    1  UNL1       -0.2499
     11 H         140.3690  140.1479  162.9178 H       1  UNL1        0.1582
     12 O         139.9764  138.5116  165.1286 O.3     1  UNL1       -0.4345
     13 C         137.9758  138.8091  166.7593 C.3     1  UNL1        0.0513
     14 C         138.5046  138.6840  165.3612 C.3     1  UNL1        0.2102
     15 C         143.3358  138.8276  156.4107 C.ar    1  UNL1       -0.0036
     16 C         144.2554  138.4043  155.3037 C.ar    1  UNL1       -0.0025
     17 C         144.9489  139.4388  154.4679 C.ar    1  UNL1        0.0042
     18 C         144.7231  140.8967  154.7390 C.ar    1  UNL1        0.0536
     19 C         143.8036  141.3201  155.8460 C.ar    1  UNL1        0.0042
     20 C         143.1100  140.2855  156.6818 C.ar    1  UNL1       -0.0025
     21 C         145.4167  141.9313  153.9031 C.2     1  UNL1        0.2490
     22 O         144.7487  142.4740  152.6746 O.2     1  UNL1       -0.2699
     23 N         146.7783  142.4231  154.2958 N.am    1  UNL1       -0.2761
     24 C         147.4718  143.4576  153.4599 C.3     1  UNL1        0.0938
     25 C         147.1121  144.9063  153.6085 C.3     1  UNL1        0.0233
     26 C         147.4463  141.8804  155.5243 C.3     1  UNL1        0.0938
     27 C         148.9422  141.7890  155.5862 C.3     1  UNL1        0.0233
     28 N         142.4555  136.4025  156.7162 N.3     1  UNL1       -0.2644
     29 C         141.3907  136.1253  155.6967 C.3     1  UNL1        0.0901
     30 C         141.2039  134.7346  155.1664 C.3     1  UNL1        0.0900
     31 N         142.0820  133.6212  155.6555 N.3     1  UNL1       -0.2652
     32 C         143.1468  133.8984  156.6750 C.3     1  UNL1        0.0900
     33 C         143.3336  135.2890  157.2053 C.3     1  UNL1        0.0901
     34 C         141.8952  132.2305  155.1252 C.3     1  UNL1        0.1193
     35 C         142.8949  131.1618  155.4545 C.ar    1  UNL1        0.0823
     36 C         144.0152  130.6998  154.5704 C.ar    1  UNL1        0.0530
     37 S         144.7624  129.6198  155.2952 S.2     1  UNL1       -0.0643
     38 C         144.1039  129.4143  156.6272 C.ar    1  UNL1        0.1341
     39 N         142.9497  130.3673  156.7257 N.ar    1  UNL1       -0.2392
@<TRIPOS>BOND
     1    13    14    1
     2    14    12    1
     3    12     8    1
     4     8     9    2
     5     8    10   am
     6    10     2    1
     7     2     3   ar
     8     3     4   ar
     9     4     5   ar
    10     5     1    1
    11     1    15    1
    12    15    16   ar
    13    16    17   ar
    14    17    18   ar
    15    18    21    1
    16    21    22    2
    17    21    23   am
    18    23    24    1
    19    24    25    1
    20    23    26    1
    21    26    27    1
    22    18    19   ar
    23    19    20   ar
    24     1    28    1
    25    28    29    1
    26    29    30    1
    27    30    31    1
    28    31    34    1
    29    34    35    1
    30    35    36   ar
    31    36    37   ar
    32    37    38   ar
    33    38    39   ar
    34    31    32    1
    35    32    33    1
    36     5     6   ar
    37     6     7   ar
    38     7     2   ar
    39    20    15   ar
    40    33    28    1
    41    39    35   ar
    42    10    11    1
@<TRIPOS>MOLECULE
*****
 39 42 0 0 0
SMALL
GASTEIGER

@<TRIPOS>ATOM
      1 C         139.8853  140.8947  158.0534 C.3     1  UNL1        0.1031
      2 C         139.3702  144.7981  155.8743 C.ar    1  UNL1        0.0532
      3 C         138.2429  143.8096  155.9188 C.ar    1  UNL1        0.0145
      4 C         138.4146  142.5084  156.6452 C.ar    1  UNL1       -0.0014
      5 C         139.7136  142.1959  157.3271 C.ar    1  UNL1       -0.0035
      6 C         140.8408  143.1844  157.2826 C.ar    1  UNL1       -0.0014
      7 C         140.6691  144.4855  156.5562 C.ar    1  UNL1        0.0145
      8 C         139.0706  147.3784  155.9208 C.2     1  UNL1        0.4054
      9 O         139.1144  147.3565  157.4200 O.2     1  UNL1       -0.2261
     10 N         139.1985  146.0992  155.1480 N.am    1  UNL1       -0.2499
     11 H         139.1697  146.1136  154.1640 H       1  UNL1        0.1582
     12 O         138.8989  148.6795  155.1944 O.3     1  UNL1       -0.4345
     13 C         138.7732  151.2603  155.4664 C.3     1  UNL1        0.0513
     14 C         138.3884  149.8854  155.9262 C.3     1  UNL1        0.2102
     15 C         139.5425  140.7983  159.5105 C.ar    1  UNL1       -0.0036
     16 C         140.6286  140.8687  160.5428 C.ar    1  UNL1       -0.0025
     17 C         140.2858  140.7722  161.9999 C.ar    1  UNL1        0.0042
     18 C         138.8569  140.6054  162.4248 C.ar    1  UNL1        0.0536
     19 C         137.7709  140.5351  161.3926 C.ar    1  UNL1        0.0042
     20 C         138.1136  140.6315  159.9354 C.ar    1  UNL1       -0.0025
     21 C         138.5142  140.5090  163.8820 C.2     1  UNL1        0.2490
     22 O         138.1362  141.7428  164.6467 O.2     1  UNL1       -0.2699
     23 N         138.5494  139.1788  164.5743 N.am    1  UNL1       -0.2761
     24 C         138.2067  139.0824  166.0314 C.3     1  UNL1        0.0938
     25 C         137.7598  137.7734  166.6118 C.3     1  UNL1        0.0233
     26 C         138.9275  137.9450  163.8095 C.3     1  UNL1        0.0938
     27 C         140.3331  137.4253  163.8717 C.3     1  UNL1        0.0233
     28 N         140.3997  139.6901  157.3227 N.3     1  UNL1       -0.2644
     29 C         141.8421  139.6182  156.9172 C.3     1  UNL1        0.0901
     30 C         142.3566  138.4134  156.1864 C.3     1  UNL1        0.0900
     31 N         141.4287  137.2806  155.8612 N.3     1  UNL1       -0.2652
     32 C         139.9863  137.3525  156.2667 C.3     1  UNL1        0.0900
     33 C         139.4718  138.5572  156.9974 C.3     1  UNL1        0.0901
     34 C         141.9431  136.0758  155.1304 C.3     1  UNL1        0.1193
     35 C         142.4631  134.8976  155.8995 C.ar    1  UNL1        0.0823
     36 C         143.5778  134.9219  156.9028 C.ar    1  UNL1        0.0530
     37 S         143.7633  133.5275  157.4237 S.2     1  UNL1       -0.0643
     38 C         142.7631  132.6414  156.7422 C.ar    1  UNL1        0.1341
     39 N         141.9595  133.4881  155.8002 N.ar    1  UNL1       -0.2392
@<TRIPOS>BOND
     1    13    14    1
     2    14    12    1
     3    12     8    1
     4     8     9    2
     5     8    10   am
     6    10     2    1
     7     2     3   ar
     8     3     4   ar
     9     4     5   ar
    10     5     1    1
    11     1    15    1
    12    15    16   ar
    13    16    17   ar
    14    17    18   ar
    15    18    21    1
    16    21    22    2
    17    21    23   am
    18    23    24    1
    19    24    25    1
    20    23    26    1
    21    26    27    1
    22    18    19   ar
    23    19    20   ar
    24     1    28    1
    25    28    29    1
    26    29    30    1
    27    30    31    1
    28    31    34    1
    29    34    35    1
    30    35    36   ar
    31    36    37   ar
    32    37    38   ar
    33    38    39   ar
    34    31    32    1
    35    32    33    1
    36     5     6   ar
    37     6     7   ar
    38     7     2   ar
    39    20    15   ar
    40    33    28    1
    41    39    35   ar
    42    10    11    1
@<TRIPOS>MOLECULE
*****
 39 42 0 0 0
SMALL
GASTEIGER

@<TRIPOS>ATOM
      1 C         142.8087  138.0280  157.3860 C.3     1  UNL1        0.1031
      2 C         142.1282  134.3662  154.8605 C.ar    1  UNL1        0.0532
      3 C         141.0245  135.3649  155.0463 C.ar    1  UNL1        0.0145
      4 C         141.2514  136.5855  155.8881 C.ar    1  UNL1       -0.0014
      5 C         142.5819  136.8074  156.5442 C.ar    1  UNL1       -0.0035
      6 C         143.6855  135.8088  156.3584 C.ar    1  UNL1       -0.0014
      7 C         143.4587  134.5882  155.5165 C.ar    1  UNL1        0.0145
      8 C         141.8793  131.7882  154.6565 C.2     1  UNL1        0.4054
      9 O         142.0841  131.6513  156.1361 O.2     1  UNL1       -0.2261
     10 N         141.9013  133.1456  154.0187 N.am    1  UNL1       -0.2499
     11 H         141.7669  133.2355  153.0476 H       1  UNL1        0.1582
     12 O         141.6524  130.5676  153.8146 O.3     1  UNL1       -0.4345
     13 C         139.5259  130.4525  152.3264 C.3     1  UNL1        0.0513
     14 C         140.2578  130.0683  153.5780 C.3     1  UNL1        0.2102
     15 C         142.1501  138.1463  158.7284 C.ar    1  UNL1       -0.0036
     16 C         142.8638  137.6697  159.9587 C.ar    1  UNL1       -0.0025
     17 C         142.2051  137.7879  161.3011 C.ar    1  UNL1        0.0042
     18 C         140.8327  138.3828  161.4133 C.ar    1  UNL1        0.0536
     19 C         140.1190  138.8594  160.1831 C.ar    1  UNL1        0.0042
     20 C         140.7777  138.7412  158.8406 C.ar    1  UNL1       -0.0025
     21 C         140.1741  138.5011  162.7558 C.2     1  UNL1        0.2490
     22 O         139.3165  137.3836  163.2715 O.2     1  UNL1       -0.2699
     23 N         140.3730  139.7367  163.5826 N.am    1  UNL1       -0.2761
     24 C         139.7143  139.8549  164.9250 C.3     1  UNL1        0.0938
     25 C         138.2786  140.2787  165.0213 C.3     1  UNL1        0.0233
     26 C         141.2305  140.8541  163.0669 C.3     1  UNL1        0.0938
     27 C         140.5978  142.1332  162.6048 C.3     1  UNL1        0.0233
     28 N         143.6943  139.1304  156.8854 N.3     1  UNL1       -0.2644
     29 C         144.0535  140.2726  157.7888 C.3     1  UNL1        0.0901
     30 C         144.9391  141.3750  157.2882 C.3     1  UNL1        0.0900
     31 N         145.4654  141.3351  155.8841 N.3     1  UNL1       -0.2652
     32 C         145.1062  140.1928  154.9807 C.3     1  UNL1        0.0900
     33 C         144.2206  139.0905  155.4813 C.3     1  UNL1        0.0901
     34 C         146.3510  142.4375  155.3835 C.3     1  UNL1        0.1193
     35 C         147.7477  142.1304  154.9308 C.ar    1  UNL1        0.0823
     36 C         148.2292  142.1073  153.5104 C.ar    1  UNL1        0.0530
     37 S         149.6872  141.7551  153.5208 S.2     1  UNL1       -0.0643
     38 C         150.1069  141.5605  154.9477 C.ar    1  UNL1        0.1341
     39 N         148.9082  141.7925  155.8192 N.ar    1  UNL1       -0.2392
@<TRIPOS>BOND
     1    13    14    1
     2    14    12    1
     3    12     8    1
     4     8     9    2
     5     8    10   am
     6    10     2    1
     7     2     3   ar
     8     3     4   ar
     9     4     5   ar
    10     5     1    1
    11     1    15    1
    12    15    16   ar
    13    16    17   ar
    14    17    18   ar
    15    18    21    1
    16    21    22    2
    17    21    23   am
    18    23    24    1
    19    24    25    1
    20    23    26    1
    21    26    27    1
    22    18    19   ar
    23    19    20   ar
    24     1    28    1
    25    28    29    1
    26    29    30    1
    27    30    31    1
    28    31    34    1
    29    34    35    1
    30    35    36   ar
    31    36    37   ar
    32    37    38   ar
    33    38    39   ar
    34    31    32    1
    35    32    33    1
    36     5     6   ar
    37     6     7   ar
    38     7     2   ar
    39    20    15   ar
    40    33    28    1
    41    39    35   ar
    42    10    11    1
@<TRIPOS>MOLECULE
*****
 39 42 0 0 0
SMALL
GASTEIGER

@<TRIPOS>ATOM
      1 C         141.2813  141.7573  158.8542 C.3     1  UNL1        0.1031
      2 C         140.3977  145.7182  156.9098 C.ar    1  UNL1        0.0532
      3 C         141.5763  145.5794  157.8272 C.ar    1  UNL1        0.0145
      4 C         141.8708  144.2591  158.4753 C.ar    1  UNL1       -0.0014
      5 C         140.9868  143.0776  158.2061 C.ar    1  UNL1       -0.0035
      6 C         139.8082  143.2164  157.2887 C.ar    1  UNL1       -0.0014
      7 C         139.5137  144.5367  156.6406 C.ar    1  UNL1        0.0145
      8 C         140.3991  147.2416  154.8052 C.2     1  UNL1        0.4054
      9 O         140.9896  146.1244  153.9969 O.2     1  UNL1       -0.2261
     10 N         140.1032  147.0385  156.2616 N.am    1  UNL1       -0.2499
     11 H         139.7156  147.7717  156.7921 H       1  UNL1        0.1582
     12 O         140.1046  148.5619  154.1571 O.3     1  UNL1       -0.4345
     13 C         139.6515  151.0026  154.9237 C.3     1  UNL1        0.0513
     14 C         139.2342  149.5634  154.8569 C.3     1  UNL1        0.2102
     15 C         140.8692  141.5109  160.2753 C.ar    1  UNL1       -0.0036
     16 C         139.4168  141.3629  160.6201 C.ar    1  UNL1       -0.0025
     17 C         139.0048  141.1165  162.0412 C.ar    1  UNL1        0.0042
     18 C         140.0449  141.0181  163.1174 C.ar    1  UNL1        0.0536
     19 C         141.4972  141.1661  162.7726 C.ar    1  UNL1        0.0042
     20 C         141.9094  141.4125  161.3515 C.ar    1  UNL1       -0.0025
     21 C         139.6328  140.7717  164.5385 C.2     1  UNL1        0.2490
     22 O         139.2496  141.9241  165.4189 O.2     1  UNL1       -0.2699
     23 N         139.6038  139.3728  165.0793 N.am    1  UNL1       -0.2761
     24 C         139.1917  139.1265  166.5003 C.3     1  UNL1        0.0938
     25 C         137.7992  138.6610  166.8074 C.3     1  UNL1        0.0233
     26 C         139.9871  138.2204  164.1989 C.3     1  UNL1        0.0938
     27 C         138.9632  137.5872  163.3042 C.3     1  UNL1        0.0233
     28 N         141.9879  140.6834  158.0813 N.3     1  UNL1       -0.2644
     29 C         141.4101  139.3006  158.0189 C.3     1  UNL1        0.0901
     30 C         142.1168  138.2267  157.2459 C.3     1  UNL1        0.0900
     31 N         143.4012  138.5356  156.5355 N.3     1  UNL1       -0.2652
     32 C         143.9790  139.9185  156.5980 C.3     1  UNL1        0.0900
     33 C         143.2724  140.9924  157.3709 C.3     1  UNL1        0.0901
     34 C         144.1079  137.4617  155.7625 C.3     1  UNL1        0.1193
     35 C         143.5176  136.0853  155.6798 C.ar    1  UNL1        0.0823
     36 C         142.7691  135.5157  154.5114 C.ar    1  UNL1        0.0530
     37 S         142.3611  134.1151  154.8604 S.2     1  UNL1       -0.0643
     38 C         142.8574  133.8190  156.2446 C.ar    1  UNL1        0.1341
     39 N         143.5722  135.0366  156.7511 N.ar    1  UNL1       -0.2392
@<TRIPOS>BOND
     1    13    14    1
     2    14    12    1
     3    12     8    1
     4     8     9    2
     5     8    10   am
     6    10     2    1
     7     2     3   ar
     8     3     4   ar
     9     4     5   ar
    10     5     1    1
    11     1    15    1
    12    15    16   ar
    13    16    17   ar
    14    17    18   ar
    15    18    21    1
    16    21    22    2
    17    21    23   am
    18    23    24    1
    19    24    25    1
    20    23    26    1
    21    26    27    1
    22    18    19   ar
    23    19    20   ar
    24     1    28    1
    25    28    29    1
    26    29    30    1
    27    30    31    1
    28    31    34    1
    29    34    35    1
    30    35    36   ar
    31    36    37   ar
    32    37    38   ar
    33    38    39   ar
    34    31    32    1
    35    32    33    1
    36     5     6   ar
    37     6     7   ar
    38     7     2   ar
    39    20    15   ar
    40    33    28    1
    41    39    35   ar
    42    10    11    1
@<TRIPOS>MOLECULE
*****
 39 42 0 0 0
SMALL
GASTEIGER

@<TRIPOS>ATOM
      1 C         142.2619  140.8605  159.5917 C.3     1  UNL1        0.1031
      2 C         140.6622  144.7967  158.1095 C.ar    1  UNL1        0.0532
      3 C         142.1359  144.6196  158.3254 C.ar    1  UNL1        0.0145
      4 C         142.6691  143.3075  158.8195 C.ar    1  UNL1       -0.0014
      5 C         141.7286  142.1726  159.0976 C.ar    1  UNL1       -0.0035
      6 C         140.2549  142.3498  158.8817 C.ar    1  UNL1       -0.0014
      7 C         139.7217  143.6619  158.3876 C.ar    1  UNL1        0.0145
      8 C         139.6797  146.2473  156.1910 C.2     1  UNL1        0.4054
      9 O         139.7636  145.0736  155.2606 O.2     1  UNL1       -0.2261
     10 N         140.1290  146.1088  157.6154 N.am    1  UNL1       -0.2499
     11 H         140.0739  146.8791  158.2260 H       1  UNL1        0.1582
     12 O         139.1465  147.5594  155.6969 O.3     1  UNL1       -0.4345
     13 C         139.5325  149.7311  154.3240 C.3     1  UNL1        0.0513
     14 C         139.8591  148.2933  154.5998 C.3     1  UNL1        0.2102
     15 C         142.4014  140.6145  161.0648 C.ar    1  UNL1       -0.0036
     16 C         141.1942  140.2681  161.8850 C.ar    1  UNL1       -0.0025
     17 C         141.3337  140.0221  163.3581 C.ar    1  UNL1        0.0042
     18 C         142.6804  140.1225  164.0110 C.ar    1  UNL1        0.0536
     19 C         143.8876  140.4688  163.1908 C.ar    1  UNL1        0.0042
     20 C         143.7481  140.7148  161.7177 C.ar    1  UNL1       -0.0025
     21 C         142.8199  139.8764  165.4841 C.2     1  UNL1        0.2490
     22 O         143.2178  138.5191  165.9834 O.2     1  UNL1       -0.2699
     23 N         142.5616  140.9877  166.4579 N.am    1  UNL1       -0.2761
     24 C         142.7011  140.7417  167.9309 C.3     1  UNL1        0.0938
     25 C         141.5747  140.1127  168.6963 C.3     1  UNL1        0.0233
     26 C         142.1638  142.3451  165.9586 C.3     1  UNL1        0.0938
     27 C         140.7216  142.7572  165.9749 C.3     1  UNL1        0.0233
     28 N         142.6555  139.7944  158.6127 N.3     1  UNL1       -0.2644
     29 C         143.3731  140.1649  157.3487 C.3     1  UNL1        0.0901
     30 C         143.7667  139.0988  156.3697 C.3     1  UNL1        0.0900
     31 N         143.4429  137.6622  156.6548 N.3     1  UNL1       -0.2652
     32 C         142.7254  137.2917  157.9188 C.3     1  UNL1        0.0900
     33 C         142.3317  138.3578  158.8978 C.3     1  UNL1        0.0901
     34 C         143.8366  136.5960  155.6757 C.3     1  UNL1        0.1193
     35 C         143.2662  135.2144  155.8018 C.ar    1  UNL1        0.0823
     36 C         142.0759  134.6810  155.0612 C.ar    1  UNL1        0.0530
     37 S         141.8600  133.2606  155.4923 S.2     1  UNL1       -0.0643
     38 C         142.9169  132.9162  156.4995 C.ar    1  UNL1        0.1341
     39 N         143.7860  134.1237  156.6908 N.ar    1  UNL1       -0.2392
@<TRIPOS>BOND
     1    13    14    1
     2    14    12    1
     3    12     8    1
     4     8     9    2
     5     8    10   am
     6    10     2    1
     7     2     3   ar
     8     3     4   ar
     9     4     5   ar
    10     5     1    1
    11     1    15    1
    12    15    16   ar
    13    16    17   ar
    14    17    18   ar
    15    18    21    1
    16    21    22    2
    17    21    23   am
    18    23    24    1
    19    24    25    1
    20    23    26    1
    21    26    27    1
    22    18    19   ar
    23    19    20   ar
    24     1    28    1
    25    28    29    1
    26    29    30    1
    27    30    31    1
    28    31    34    1
    29    34    35    1
    30    35    36   ar
    31    36    37   ar
    32    37    38   ar
    33    38    39   ar
    34    31    32    1
    35    32    33    1
    36     5     6   ar
    37     6     7   ar
    38     7     2   ar
    39    20    15   ar
    40    33    28    1
    41    39    35   ar
    42    10    11    1
