@<TRIPOS>MOLECULE
*****
 40 44 0 0 0
SMALL
GASTEIGER

@<TRIPOS>ATOM
      1 N         141.0511  138.7006  162.8151 N.ar    1  UNL1       -0.3063
      2 C         139.9944  139.5740  163.4237 C.ar    1  UNL1        0.1240
      3 C         139.4745  140.4871  162.3531 C.ar    1  UNL1        0.1156
      4 C         140.2100  140.1779  161.0829 C.ar    1  UNL1        0.0966
      5 C         141.1843  139.0738  161.3684 C.ar    1  UNL1        0.1349
      6 C         142.0670  138.5508  160.2741 C.ar    1  UNL1        0.2819
      7 O         143.0413  137.4467  160.5596 O.2     1  UNL1       -0.2652
      8 N         141.9753  139.1320  158.8944 N.ar    1  UNL1       -0.2400
      9 C         141.0009  140.2362  158.6088 C.ar    1  UNL1        0.3343
     10 O         140.9092  140.8174  157.2291 O.2     1  UNL1       -0.2462
     11 N         140.1182  140.7591  159.7031 N.ar    1  UNL1       -0.2770
     12 C         139.1439  141.8633  159.4176 C.3     1  UNL1        0.1351
     13 N         139.5377  139.5404  164.8522 N.pl3   1  UNL1       -0.2926
     14 C         140.0981  140.5183  165.8419 C.3     1  UNL1        0.0922
     15 C         139.6414  140.4846  167.2703 C.3     1  UNL1        0.0229
     16 C         138.6243  139.4731  167.7089 C.3     1  UNL1        0.0190
     17 C         138.0639  138.4952  166.7191 C.3     1  UNL1        0.0709
     18 N         137.0468  137.4837  167.1577 N.3     1  UNL1       -0.3208
     19 C         138.5206  138.5289  165.2907 C.3     1  UNL1        0.1075
     20 H         136.8547  137.6039  168.1521 H       1  UNL1        0.1189
     21 H         137.4084  136.5443  166.9923 H       1  UNL1        0.1189
     22 C         138.4068  141.5268  162.5230 C.1     1  UNL1        0.1047
     23 N         137.3389  142.5665  162.6929 N.1     1  UNL1       -0.1907
     24 C         141.8366  137.6401  163.5280 C.3     1  UNL1        0.1332
     25 C         143.3479  138.6609  167.0528 C.3     1  UNL1        0.0261
     26 C         143.1449  138.5740  165.5691 C.2     1  UNL1       -0.0460
     27 C         144.0473  139.3342  164.6429 C.3     1  UNL1        0.0261
     28 C         142.0396  137.7270  165.0116 C.2     1  UNL1       -0.0102
     29 C         142.8579  138.6091  157.8001 C.3     1  UNL1        0.1791
     30 C         142.4749  137.3626  157.0588 C.ar    1  UNL1        0.1617
     31 N         141.5337  137.4422  155.8936 N.ar    1  UNL1       -0.2330
     32 C         141.1507  136.1957  155.1523 C.ar    1  UNL1        0.0622
     33 C         140.2094  136.2754  153.9871 C.3     1  UNL1        0.0522
     34 C         141.7089  134.8695  155.5761 C.ar    1  UNL1        0.0313
     35 C         141.3259  133.6231  154.8348 C.ar    1  UNL1        0.0027
     36 C         141.8842  132.2970  155.2587 C.ar    1  UNL1        0.0001
     37 C         142.8254  132.2173  156.4239 C.ar    1  UNL1        0.0015
     38 C         143.2084  133.4638  157.1652 C.ar    1  UNL1        0.0192
     39 C         142.6502  134.7899  156.7413 C.ar    1  UNL1        0.0838
     40 N         143.0332  136.0364  157.4826 N.ar    1  UNL1       -0.2287
@<TRIPOS>BOND
     1    25    26    1
     2    26    27    1
     3    26    28    2
     4    28    24    1
     5    24     1    1
     6     1     2   ar
     7     2    13    1
     8    13    14    1
     9    14    15    1
    10    15    16    1
    11    16    17    1
    12    17    18    1
    13    17    19    1
    14     2     3   ar
    15     3    22    1
    16    22    23    3
    17     3     4   ar
    18     4     5   ar
    19     5     6   ar
    20     6     7    2
    21     6     8   ar
    22     8    29    1
    23    29    30    1
    24    30    31   ar
    25    31    32   ar
    26    32    33    1
    27    32    34   ar
    28    34    35   ar
    29    35    36   ar
    30    36    37   ar
    31    37    38   ar
    32    38    39   ar
    33    39    40   ar
    34     8     9   ar
    35     9    10    2
    36     9    11   ar
    37    11    12    1
    38     5     1   ar
    39    40    30   ar
    40    19    13    1
    41    11     4   ar
    42    39    34   ar
    43    18    20    1
    44    18    21    1
@<TRIPOS>MOLECULE
*****
 40 44 0 0 0
SMALL
GASTEIGER

@<TRIPOS>ATOM
      1 N         140.1488  140.4514  164.3446 N.ar    1  UNL1       -0.3063
      2 C         141.5307  140.5539  164.9188 C.ar    1  UNL1        0.1240
      3 C         142.5125  140.3650  163.8005 C.ar    1  UNL1        0.1156
      4 C         141.7373  140.1458  162.5353 C.ar    1  UNL1        0.0966
      5 C         140.2765  140.1991  162.8715 C.ar    1  UNL1        0.1349
      6 C         139.2512  140.0111  161.7928 C.ar    1  UNL1        0.2819
      7 O         137.7904  140.0645  162.1290 O.2     1  UNL1       -0.2652
      8 N         139.6868  139.7698  160.3779 N.ar    1  UNL1       -0.2400
      9 C         141.1477  139.7164  160.0416 C.ar    1  UNL1        0.3343
     10 O         141.5833  139.4750  158.6267 O.2     1  UNL1       -0.2462
     11 N         142.1730  139.9044  161.1203 N.ar    1  UNL1       -0.2770
     12 C         143.6338  139.8510  160.7841 C.3     1  UNL1        0.1351
     13 N         141.8712  140.8018  166.3585 N.pl3   1  UNL1       -0.2926
     14 C         141.8156  142.1943  166.9133 C.3     1  UNL1        0.0922
     15 C         142.1560  142.4421  168.3529 C.3     1  UNL1        0.0229
     16 C         142.5521  141.2975  169.2378 C.3     1  UNL1        0.0190
     17 C         142.6077  139.9050  168.6830 C.3     1  UNL1        0.0709
     18 N         143.0037  138.7603  169.5678 N.3     1  UNL1       -0.3208
     19 C         142.2672  139.6572  167.2433 C.3     1  UNL1        0.1075
     20 H         143.1990  139.1081  170.5066 H       1  UNL1        0.1189
     21 H         143.8389  138.3122  169.1907 H       1  UNL1        0.1189
     22 C         144.0071  140.3909  163.9256 C.1     1  UNL1        0.1047
     23 N         145.5017  140.4168  164.0507 N.1     1  UNL1       -0.1907
     24 C         138.8646  140.5787  165.1092 C.3     1  UNL1        0.1332
     25 C         137.2513  137.6512  167.2486 C.3     1  UNL1        0.0261
     26 C         138.0357  138.8786  166.8903 C.2     1  UNL1       -0.0460
     27 C         138.7755  139.6331  167.9549 C.3     1  UNL1        0.0261
     28 C         138.0803  139.3514  165.4675 C.2     1  UNL1       -0.0102
     29 C         138.6616  139.5818  159.2992 C.3     1  UNL1        0.1791
     30 C         138.3604  140.7014  158.3474 C.ar    1  UNL1        0.1617
     31 N         137.1786  140.6070  157.4285 N.ar    1  UNL1       -0.2330
     32 C         136.8773  141.7266  156.4768 C.ar    1  UNL1        0.0622
     33 C         135.6955  141.6322  155.5578 C.3     1  UNL1        0.0522
     34 C         137.7579  142.9405  156.4439 C.ar    1  UNL1        0.0313
     35 C         137.4566  144.0600  155.4922 C.ar    1  UNL1        0.0027
     36 C         138.3372  145.2739  155.4594 C.ar    1  UNL1        0.0001
     37 C         139.5190  145.3682  156.3783 C.ar    1  UNL1        0.0015
     38 C         139.8202  144.2487  157.3301 C.ar    1  UNL1        0.0192
     39 C         138.9397  143.0348  157.3629 C.ar    1  UNL1        0.0838
     40 N         139.2409  141.9152  158.3147 N.ar    1  UNL1       -0.2287
@<TRIPOS>BOND
     1    25    26    1
     2    26    27    1
     3    26    28    2
     4    28    24    1
     5    24     1    1
     6     1     2   ar
     7     2    13    1
     8    13    14    1
     9    14    15    1
    10    15    16    1
    11    16    17    1
    12    17    18    1
    13    17    19    1
    14     2     3   ar
    15     3    22    1
    16    22    23    3
    17     3     4   ar
    18     4     5   ar
    19     5     6   ar
    20     6     7    2
    21     6     8   ar
    22     8    29    1
    23    29    30    1
    24    30    31   ar
    25    31    32   ar
    26    32    33    1
    27    32    34   ar
    28    34    35   ar
    29    35    36   ar
    30    36    37   ar
    31    37    38   ar
    32    38    39   ar
    33    39    40   ar
    34     8     9   ar
    35     9    10    2
    36     9    11   ar
    37    11    12    1
    38     5     1   ar
    39    40    30   ar
    40    19    13    1
    41    11     4   ar
    42    39    34   ar
    43    18    20    1
    44    18    21    1
@<TRIPOS>MOLECULE
*****
 40 44 0 0 0
SMALL
GASTEIGER

@<TRIPOS>ATOM
      1 N         141.8241  142.2947  165.7023 N.ar    1  UNL1       -0.3063
      2 C         141.0531  141.2251  166.4174 C.ar    1  UNL1        0.1240
      3 C         139.7877  140.9751  165.6517 C.ar    1  UNL1        0.1156
      4 C         139.7767  141.8902  164.4632 C.ar    1  UNL1        0.0966
      5 C         141.0352  142.7058  164.4945 C.ar    1  UNL1        0.1349
      6 C         141.3003  143.7174  163.4192 C.ar    1  UNL1        0.2819
      7 O         142.5588  144.5330  163.4504 O.2     1  UNL1       -0.2652
      8 N         140.3069  143.9135  162.3125 N.ar    1  UNL1       -0.2400
      9 C         139.0483  143.0979  162.2812 C.ar    1  UNL1        0.3343
     10 O         138.0549  143.2939  161.1746 O.2     1  UNL1       -0.2462
     11 N         138.7832  142.0863  163.3566 N.ar    1  UNL1       -0.2770
     12 C         137.5248  141.2707  163.3253 C.3     1  UNL1        0.1351
     13 N         141.4736  140.5278  167.6773 N.pl3   1  UNL1       -0.2926
     14 C         142.5127  139.4474  167.6254 C.3     1  UNL1        0.0922
     15 C         142.9332  138.7501  168.8852 C.3     1  UNL1        0.0229
     16 C         142.3145  139.1334  170.1968 C.3     1  UNL1        0.0190
     17 C         141.2753  140.2139  170.2487 C.3     1  UNL1        0.0709
     18 N         140.6566  140.5971  171.5603 N.3     1  UNL1       -0.3208
     19 C         140.8549  140.9111  168.9889 C.3     1  UNL1        0.1075
     20 H         141.0567  140.0260  172.3047 H       1  UNL1        0.1189
     21 H         139.6490  140.4442  171.5185 H       1  UNL1        0.1189
     22 C         138.7207  139.9840  166.0112 C.1     1  UNL1        0.1047
     23 N         137.6537  138.9929  166.3707 N.1     1  UNL1       -0.1907
     24 C         143.1509  142.8549  166.1213 C.3     1  UNL1        0.1332
     25 C         145.8614  141.7693  163.4333 C.3     1  UNL1        0.0261
     26 C         144.7340  141.6934  164.4199 C.2     1  UNL1       -0.0460
     27 C         144.0625  140.3799  164.6917 C.3     1  UNL1        0.0261
     28 C         144.2782  142.9308  165.1347 C.2     1  UNL1       -0.0102
     29 C         140.5720  144.9251  161.2372 C.3     1  UNL1        0.1791
     30 C         141.2163  144.5008  159.9507 C.ar    1  UNL1        0.1617
     31 N         140.5457  144.7981  158.6423 N.ar    1  UNL1       -0.2330
     32 C         141.1899  144.3739  157.3559 C.ar    1  UNL1        0.0622
     33 C         140.5193  144.6712  156.0475 C.3     1  UNL1        0.0522
     34 C         142.5048  143.6522  157.3778 C.ar    1  UNL1        0.0313
     35 C         143.1490  143.2280  156.0914 C.ar    1  UNL1        0.0027
     36 C         144.4638  142.5064  156.1133 C.ar    1  UNL1        0.0001
     37 C         145.1344  142.2090  157.4217 C.ar    1  UNL1        0.0015
     38 C         144.4902  142.6333  158.7082 C.ar    1  UNL1        0.0192
     39 C         143.1754  143.3549  158.6862 C.ar    1  UNL1        0.0838
     40 N         142.5311  143.7792  159.9727 N.ar    1  UNL1       -0.2287
@<TRIPOS>BOND
     1    25    26    1
     2    26    27    1
     3    26    28    2
     4    28    24    1
     5    24     1    1
     6     1     2   ar
     7     2    13    1
     8    13    14    1
     9    14    15    1
    10    15    16    1
    11    16    17    1
    12    17    18    1
    13    17    19    1
    14     2     3   ar
    15     3    22    1
    16    22    23    3
    17     3     4   ar
    18     4     5   ar
    19     5     6   ar
    20     6     7    2
    21     6     8   ar
    22     8    29    1
    23    29    30    1
    24    30    31   ar
    25    31    32   ar
    26    32    33    1
    27    32    34   ar
    28    34    35   ar
    29    35    36   ar
    30    36    37   ar
    31    37    38   ar
    32    38    39   ar
    33    39    40   ar
    34     8     9   ar
    35     9    10    2
    36     9    11   ar
    37    11    12    1
    38     5     1   ar
    39    40    30   ar
    40    19    13    1
    41    11     4   ar
    42    39    34   ar
    43    18    20    1
    44    18    21    1
@<TRIPOS>MOLECULE
*****
 40 44 0 0 0
SMALL
GASTEIGER

@<TRIPOS>ATOM
      1 N         142.1000  141.5516  164.8816 N.ar    1  UNL1       -0.3063
      2 C         141.0116  142.1981  165.6862 C.ar    1  UNL1        0.1240
      3 C         140.4727  143.3522  164.8940 C.ar    1  UNL1        0.1156
      4 C         141.2280  143.4189  163.5998 C.ar    1  UNL1        0.0966
      5 C         142.2338  142.3061  163.5921 C.ar    1  UNL1        0.1349
      6 C         143.1414  142.1236  162.4119 C.ar    1  UNL1        0.2819
      7 O         144.1472  141.0108  162.4043 O.2     1  UNL1       -0.2652
      8 N         143.0434  143.0539  161.2394 N.ar    1  UNL1       -0.2400
      9 C         142.0376  144.1668  161.2470 C.ar    1  UNL1        0.3343
     10 O         141.9395  145.0971  160.0745 O.2     1  UNL1       -0.2462
     11 N         141.1299  144.3493  162.4272 N.ar    1  UNL1       -0.2770
     12 C         140.1242  145.4621  162.4349 C.3     1  UNL1        0.1351
     13 N         140.5442  141.7663  167.0446 N.pl3   1  UNL1       -0.2926
     14 C         139.7012  140.5343  167.1912 C.3     1  UNL1        0.0922
     15 C         139.2338  140.1026  168.5495 C.3     1  UNL1        0.0229
     16 C         139.6094  140.9029  169.7613 C.3     1  UNL1        0.0190
     17 C         140.4523  142.1350  169.6147 C.3     1  UNL1        0.0709
     18 N         140.8278  142.9353  170.8265 N.3     1  UNL1       -0.3208
     19 C         140.9197  142.5667  168.2564 C.3     1  UNL1        0.1075
     20 H         140.4279  142.5009  171.6583 H       1  UNL1        0.1189
     21 H         140.4672  143.8847  170.7321 H       1  UNL1        0.1189
     22 C         139.3717  144.2771  165.3210 C.1     1  UNL1        0.1047
     23 N         138.2707  145.2021  165.7481 N.1     1  UNL1       -0.1907
     24 C         142.9121  140.3598  165.2941 C.3     1  UNL1        0.1332
     25 C         141.1039  136.8911  164.6241 C.3     1  UNL1        0.0261
     26 C         141.7770  138.2091  164.3796 C.2     1  UNL1       -0.0460
     27 C         141.9882  138.6944  162.9761 C.3     1  UNL1        0.0261
     28 C         142.2390  139.0418  165.5386 C.2     1  UNL1       -0.0102
     29 C         143.9510  142.8714  160.0592 C.3     1  UNL1        0.1791
     30 C         143.7241  141.7345  159.1073 C.ar    1  UNL1        0.1617
     31 N         142.5760  140.7936  159.3228 N.ar    1  UNL1       -0.2330
     32 C         142.3490  139.6568  158.3710 C.ar    1  UNL1        0.0622
     33 C         141.2009  138.7159  158.5865 C.3     1  UNL1        0.0522
     34 C         143.2703  139.4608  157.2035 C.ar    1  UNL1        0.0313
     35 C         143.0434  138.3239  156.2517 C.ar    1  UNL1        0.0027
     36 C         143.9647  138.1280  155.0843 C.ar    1  UNL1        0.0001
     37 C         145.1129  139.0688  154.8688 C.ar    1  UNL1        0.0015
     38 C         145.3398  140.2057  155.8206 C.ar    1  UNL1        0.0192
     39 C         144.4185  140.4016  156.9880 C.ar    1  UNL1        0.0838
     40 N         144.6454  141.5385  157.9399 N.ar    1  UNL1       -0.2287
@<TRIPOS>BOND
     1    25    26    1
     2    26    27    1
     3    26    28    2
     4    28    24    1
     5    24     1    1
     6     1     2   ar
     7     2    13    1
     8    13    14    1
     9    14    15    1
    10    15    16    1
    11    16    17    1
    12    17    18    1
    13    17    19    1
    14     2     3   ar
    15     3    22    1
    16    22    23    3
    17     3     4   ar
    18     4     5   ar
    19     5     6   ar
    20     6     7    2
    21     6     8   ar
    22     8    29    1
    23    29    30    1
    24    30    31   ar
    25    31    32   ar
    26    32    33    1
    27    32    34   ar
    28    34    35   ar
    29    35    36   ar
    30    36    37   ar
    31    37    38   ar
    32    38    39   ar
    33    39    40   ar
    34     8     9   ar
    35     9    10    2
    36     9    11   ar
    37    11    12    1
    38     5     1   ar
    39    40    30   ar
    40    19    13    1
    41    11     4   ar
    42    39    34   ar
    43    18    20    1
    44    18    21    1
@<TRIPOS>MOLECULE
*****
 40 44 0 0 0
SMALL
GASTEIGER

@<TRIPOS>ATOM
      1 N         140.7998  139.2627  159.8836 N.ar    1  UNL1       -0.3063
      2 C         139.5627  140.0979  159.7350 C.ar    1  UNL1        0.1240
      3 C         139.1222  140.0232  158.3031 C.ar    1  UNL1        0.1156
      4 C         140.0871  139.1419  157.5668 C.ar    1  UNL1        0.0966
      5 C         141.1239  138.6719  158.5435 C.ar    1  UNL1        0.1349
      6 C         142.2291  137.7666  158.0864 C.ar    1  UNL1        0.2819
      7 O         143.2659  137.2965  159.0632 O.2     1  UNL1       -0.2652
      8 N         142.2975  137.3313  156.6527 N.ar    1  UNL1       -0.2400
      9 C         141.2607  137.8013  155.6758 C.ar    1  UNL1        0.3343
     10 O         141.3291  137.3660  154.2420 O.2     1  UNL1       -0.2462
     11 N         140.1554  138.7066  156.1329 N.ar    1  UNL1       -0.2770
     12 C         139.1186  139.1766  155.1561 C.3     1  UNL1        0.1351
     13 N         138.8851  140.8720  160.8268 N.pl3   1  UNL1       -0.2926
     14 C         138.0337  140.1584  161.8347 C.3     1  UNL1        0.0922
     15 C         137.3562  140.9325  162.9264 C.3     1  UNL1        0.0229
     16 C         137.5299  142.4200  163.0100 C.3     1  UNL1        0.0190
     17 C         138.3813  143.1335  162.0021 C.3     1  UNL1        0.0709
     18 N         138.5550  144.6211  162.0857 N.3     1  UNL1       -0.3208
     19 C         139.0588  142.3595  160.9104 C.3     1  UNL1        0.1075
     20 H         138.0285  144.9807  162.8819 H       1  UNL1        0.1189
     21 H         138.2110  145.0524  161.2278 H       1  UNL1        0.1189
     22 C         137.9268  140.7094  157.7115 C.1     1  UNL1        0.1047
     23 N         136.7313  141.3956  157.1198 N.1     1  UNL1       -0.1907
     24 C         141.5765  139.0549  161.1499 C.3     1  UNL1        0.1332
     25 C         140.3501  137.4978  164.5881 C.3     1  UNL1        0.0261
     26 C         140.8240  138.4950  163.5727 C.2     1  UNL1       -0.0460
     27 C         141.0193  139.9296  163.9650 C.3     1  UNL1        0.0261
     28 C         141.1026  138.0577  162.1653 C.2     1  UNL1       -0.0102
     29 C         143.4027  136.4260  156.1956 C.3     1  UNL1        0.1791
     30 C         143.2361  134.9376  156.2795 C.ar    1  UNL1        0.1617
     31 N         142.1187  134.2650  155.5386 N.ar    1  UNL1       -0.2330
     32 C         141.9521  132.7767  155.6224 C.ar    1  UNL1        0.0622
     33 C         140.8346  132.1042  154.8815 C.3     1  UNL1        0.0522
     34 C         142.9029  131.9608  156.4473 C.ar    1  UNL1        0.0313
     35 C         142.7363  130.4725  156.5312 C.ar    1  UNL1        0.0027
     36 C         143.6871  129.6567  157.3560 C.ar    1  UNL1        0.0001
     37 C         144.8046  130.3293  158.0970 C.ar    1  UNL1        0.0015
     38 C         144.9712  131.8176  158.0131 C.ar    1  UNL1        0.0192
     39 C         144.0204  132.6334  157.1883 C.ar    1  UNL1        0.0838
     40 N         144.1870  134.1218  157.1043 N.ar    1  UNL1       -0.2287
@<TRIPOS>BOND
     1    25    26    1
     2    26    27    1
     3    26    28    2
     4    28    24    1
     5    24     1    1
     6     1     2   ar
     7     2    13    1
     8    13    14    1
     9    14    15    1
    10    15    16    1
    11    16    17    1
    12    17    18    1
    13    17    19    1
    14     2     3   ar
    15     3    22    1
    16    22    23    3
    17     3     4   ar
    18     4     5   ar
    19     5     6   ar
    20     6     7    2
    21     6     8   ar
    22     8    29    1
    23    29    30    1
    24    30    31   ar
    25    31    32   ar
    26    32    33    1
    27    32    34   ar
    28    34    35   ar
    29    35    36   ar
    30    36    37   ar
    31    37    38   ar
    32    38    39   ar
    33    39    40   ar
    34     8     9   ar
    35     9    10    2
    36     9    11   ar
    37    11    12    1
    38     5     1   ar
    39    40    30   ar
    40    19    13    1
    41    11     4   ar
    42    39    34   ar
    43    18    20    1
    44    18    21    1
@<TRIPOS>MOLECULE
*****
 40 44 0 0 0
SMALL
GASTEIGER

@<TRIPOS>ATOM
      1 N         140.2160  142.1421  164.9241 N.ar    1  UNL1       -0.3063
      2 C         141.3889  142.3629  165.8327 C.ar    1  UNL1        0.1240
      3 C         142.4747  143.0231  165.0357 C.ar    1  UNL1        0.1156
      4 C         141.9729  143.2103  163.6347 C.ar    1  UNL1        0.0966
      5 C         140.5769  142.6658  163.5656 C.ar    1  UNL1        0.1349
      6 C         139.8148  142.7172  162.2747 C.ar    1  UNL1        0.2819
      7 O         138.4188  142.1727  162.2057 O.2     1  UNL1       -0.2652
      8 N         140.4486  143.3130  161.0528 N.ar    1  UNL1       -0.2400
      9 C         141.8446  143.8576  161.1218 C.ar    1  UNL1        0.3343
     10 O         142.4784  144.4535  159.8998 O.2     1  UNL1       -0.2462
     11 N         142.6067  143.8062  162.4127 N.ar    1  UNL1       -0.2770
     12 C         144.0027  144.3507  162.4817 C.3     1  UNL1        0.1351
     13 N         141.4630  141.9892  167.2836 N.pl3   1  UNL1       -0.2926
     14 C         142.3147  140.8334  167.7178 C.3     1  UNL1        0.0922
     15 C         142.3888  140.4598  169.1686 C.3     1  UNL1        0.0229
     16 C         141.6111  141.2419  170.1851 C.3     1  UNL1        0.0190
     17 C         140.7593  142.3977  169.7509 C.3     1  UNL1        0.0709
     18 N         139.9816  143.1798  170.7675 N.3     1  UNL1       -0.3208
     19 C         140.6853  142.7714  168.3001 C.3     1  UNL1        0.1075
     20 H         140.1480  142.7910  171.6957 H       1  UNL1        0.1189
     21 H         138.9866  143.1258  170.5496 H       1  UNL1        0.1189
     22 C         143.8252  143.4255  165.5497 C.1     1  UNL1        0.1047
     23 N         145.1758  143.8279  166.0637 N.1     1  UNL1       -0.1907
     24 C         138.9112  141.5088  165.3068 C.3     1  UNL1        0.1332
     25 C         138.3879  137.6111  165.8398 C.3     1  UNL1        0.0261
     26 C         138.6321  139.0616  166.1335 C.2     1  UNL1       -0.0460
     27 C         138.8415  139.5155  167.5478 C.3     1  UNL1        0.0261
     28 C         138.6670  140.0582  165.0131 C.2     1  UNL1       -0.0102
     29 C         139.6865  143.3644  159.7618 C.3     1  UNL1        0.1791
     30 C         139.6174  142.1508  158.8829 C.ar    1  UNL1        0.1617
     31 N         138.4945  141.9998  157.8998 N.ar    1  UNL1       -0.2330
     32 C         138.4254  140.7863  157.0208 C.ar    1  UNL1        0.0622
     33 C         137.3026  140.6353  156.0377 C.3     1  UNL1        0.0522
     34 C         139.4791  139.7238  157.1250 C.ar    1  UNL1        0.0313
     35 C         139.4100  138.5103  156.2460 C.ar    1  UNL1        0.0027
     36 C         140.4636  137.4478  156.3502 C.ar    1  UNL1        0.0001
     37 C         141.5864  137.5988  157.3333 C.ar    1  UNL1        0.0015
     38 C         141.6556  138.8123  158.2122 C.ar    1  UNL1        0.0192
     39 C         140.6019  139.8748  158.1081 C.ar    1  UNL1        0.0838
     40 N         140.6710  141.0884  158.9870 N.ar    1  UNL1       -0.2287
@<TRIPOS>BOND
     1    25    26    1
     2    26    27    1
     3    26    28    2
     4    28    24    1
     5    24     1    1
     6     1     2   ar
     7     2    13    1
     8    13    14    1
     9    14    15    1
    10    15    16    1
    11    16    17    1
    12    17    18    1
    13    17    19    1
    14     2     3   ar
    15     3    22    1
    16    22    23    3
    17     3     4   ar
    18     4     5   ar
    19     5     6   ar
    20     6     7    2
    21     6     8   ar
    22     8    29    1
    23    29    30    1
    24    30    31   ar
    25    31    32   ar
    26    32    33    1
    27    32    34   ar
    28    34    35   ar
    29    35    36   ar
    30    36    37   ar
    31    37    38   ar
    32    38    39   ar
    33    39    40   ar
    34     8     9   ar
    35     9    10    2
    36     9    11   ar
    37    11    12    1
    38     5     1   ar
    39    40    30   ar
    40    19    13    1
    41    11     4   ar
    42    39    34   ar
    43    18    20    1
    44    18    21    1
@<TRIPOS>MOLECULE
*****
 40 44 0 0 0
SMALL
GASTEIGER

@<TRIPOS>ATOM
      1 N         142.4122  141.1033  165.8175 N.ar    1  UNL1       -0.3063
      2 C         141.2010  140.8284  166.6585 C.ar    1  UNL1        0.1240
      3 C         140.3573  139.8177  165.9396 C.ar    1  UNL1        0.1156
      4 C         141.0471  139.4681  164.6544 C.ar    1  UNL1        0.0966
      5 C         142.3171  140.2627  164.5789 C.ar    1  UNL1        0.1349
      6 C         143.2229  140.1180  163.3921 C.ar    1  UNL1        0.2819
      7 O         144.4929  140.9125  163.3166 O.2     1  UNL1       -0.2652
      8 N         142.8587  139.1788  162.2807 N.ar    1  UNL1       -0.2400
      9 C         141.5886  138.3842  162.3561 C.ar    1  UNL1        0.3343
     10 O         141.2244  137.4450  161.2447 O.2     1  UNL1       -0.2462
     11 N         140.6828  138.5289  163.5430 N.ar    1  UNL1       -0.2770
     12 C         139.4128  137.7344  163.6184 C.3     1  UNL1        0.1351
     13 N         140.8883  141.4541  167.9854 N.pl3   1  UNL1       -0.2926
     14 C         140.5548  142.9143  168.0661 C.3     1  UNL1        0.0922
     15 C         140.2421  143.5400  169.3929 C.3     1  UNL1        0.0229
     16 C         140.2630  142.7056  170.6392 C.3     1  UNL1        0.0190
     17 C         140.5965  141.2454  170.5586 C.3     1  UNL1        0.0709
     18 N         140.6173  140.4109  171.8049 N.3     1  UNL1       -0.3208
     19 C         140.9091  140.6196  169.2317 C.3     1  UNL1        0.1075
     20 H         140.3828  140.9938  172.6083 H       1  UNL1        0.1189
     21 H         141.5482  140.0140  171.9328 H       1  UNL1        0.1189
     22 C         139.0528  139.2554  166.4214 C.1     1  UNL1        0.1047
     23 N         137.7482  138.6931  166.9031 N.1     1  UNL1       -0.1907
     24 C         143.5235  142.0523  166.1558 C.3     1  UNL1        0.1332
     25 C         143.4788  144.9179  163.4105 C.3     1  UNL1        0.0261
     26 C         143.0061  143.9231  164.4288 C.2     1  UNL1       -0.0460
     27 C         141.5432  143.8043  164.7383 C.3     1  UNL1        0.0261
     28 C         143.9962  143.0471  165.1375 C.2     1  UNL1       -0.0102
     29 C         143.7645  139.0341  161.0938 C.3     1  UNL1        0.1791
     30 C         143.6226  139.9629  159.9245 C.ar    1  UNL1        0.1617
     31 N         144.1261  139.5498  158.5732 N.ar    1  UNL1       -0.2330
     32 C         143.9843  140.4785  157.4039 C.ar    1  UNL1        0.0622
     33 C         144.4878  140.0655  156.0527 C.3     1  UNL1        0.0522
     34 C         143.3390  141.8204  157.5858 C.ar    1  UNL1        0.0313
     35 C         143.1972  142.7491  156.4165 C.ar    1  UNL1        0.0027
     36 C         142.5519  144.0909  156.5984 C.ar    1  UNL1        0.0001
     37 C         142.0484  144.5040  157.9497 C.ar    1  UNL1        0.0015
     38 C         142.1902  143.5753  159.1190 C.ar    1  UNL1        0.0192
     39 C         142.8355  142.2335  158.9370 C.ar    1  UNL1        0.0838
     40 N         142.9773  141.3047  160.1064 N.ar    1  UNL1       -0.2287
@<TRIPOS>BOND
     1    25    26    1
     2    26    27    1
     3    26    28    2
     4    28    24    1
     5    24     1    1
     6     1     2   ar
     7     2    13    1
     8    13    14    1
     9    14    15    1
    10    15    16    1
    11    16    17    1
    12    17    18    1
    13    17    19    1
    14     2     3   ar
    15     3    22    1
    16    22    23    3
    17     3     4   ar
    18     4     5   ar
    19     5     6   ar
    20     6     7    2
    21     6     8   ar
    22     8    29    1
    23    29    30    1
    24    30    31   ar
    25    31    32   ar
    26    32    33    1
    27    32    34   ar
    28    34    35   ar
    29    35    36   ar
    30    36    37   ar
    31    37    38   ar
    32    38    39   ar
    33    39    40   ar
    34     8     9   ar
    35     9    10    2
    36     9    11   ar
    37    11    12    1
    38     5     1   ar
    39    40    30   ar
    40    19    13    1
    41    11     4   ar
    42    39    34   ar
    43    18    20    1
    44    18    21    1
@<TRIPOS>MOLECULE
*****
 40 44 0 0 0
SMALL
GASTEIGER

@<TRIPOS>ATOM
      1 N         142.2494  141.4679  164.8187 N.ar    1  UNL1       -0.3063
      2 C         141.1516  142.1263  165.6005 C.ar    1  UNL1        0.1240
      3 C         140.6288  143.2744  164.7889 C.ar    1  UNL1        0.1156
      4 C         141.4036  143.3255  163.5055 C.ar    1  UNL1        0.0966
      5 C         142.4052  142.2091  163.5239 C.ar    1  UNL1        0.1349
      6 C         143.3297  142.0116  162.3593 C.ar    1  UNL1        0.2819
      7 O         144.3313  140.8952  162.3777 O.2     1  UNL1       -0.2652
      8 N         143.2526  142.9305  161.1763 N.ar    1  UNL1       -0.2400
      9 C         142.2509  144.0470  161.1579 C.ar    1  UNL1        0.3343
     10 O         142.1738  144.9660  159.9748 O.2     1  UNL1       -0.2462
     11 N         141.3264  144.2445  162.3225 N.ar    1  UNL1       -0.2770
     12 C         140.3248  145.3609  162.3041 C.3     1  UNL1        0.1351
     13 N         140.6623  141.7098  166.9560 N.pl3   1  UNL1       -0.2926
     14 C         139.7735  140.5097  167.0963 C.3     1  UNL1        0.0922
     15 C         139.2843  140.0932  168.4518 C.3     1  UNL1        0.0229
     16 C         139.6839  140.8768  169.6668 C.3     1  UNL1        0.0190
     17 C         140.5727  142.0769  169.5264 C.3     1  UNL1        0.0709
     18 N         140.9723  142.8606  170.7414 N.3     1  UNL1       -0.3208
     19 C         141.0619  142.4934  168.1710 C.3     1  UNL1        0.1075
     20 H         140.5528  142.4398  171.5705 H       1  UNL1        0.1189
     21 H         140.6476  143.8229  170.6472 H       1  UNL1        0.1189
     22 C         139.5250  144.2074  165.1902 C.1     1  UNL1        0.1047
     23 N         138.4212  145.1406  165.5916 N.1     1  UNL1       -0.1907
     24 C         143.0509  140.2774  165.2550 C.3     1  UNL1        0.1332
     25 C         141.1331  136.8607  164.6242 C.3     1  UNL1        0.0261
     26 C         141.8161  138.1711  164.3669 C.2     1  UNL1       -0.0460
     27 C         141.9473  138.6857  162.9640 C.3     1  UNL1        0.0261
     28 C         142.3678  138.9670  165.5123 C.2     1  UNL1       -0.0102
     29 C         144.1770  142.7331  160.0117 C.3     1  UNL1        0.1791
     30 C         143.8847  141.6708  158.9938 C.ar    1  UNL1        0.1617
     31 N         144.8019  141.4821  157.8220 N.ar    1  UNL1       -0.2330
     32 C         144.5096  140.4199  156.8041 C.ar    1  UNL1        0.0622
     33 C         145.4269  140.2313  155.6323 C.3     1  UNL1        0.0522
     34 C         143.3000  139.5462  156.9579 C.ar    1  UNL1        0.0313
     35 C         143.0077  138.4840  155.9400 C.ar    1  UNL1        0.0027
     36 C         141.7982  137.6104  156.0939 C.ar    1  UNL1        0.0001
     37 C         140.8809  137.7990  157.2657 C.ar    1  UNL1        0.0015
     38 C         141.1732  138.8612  158.2836 C.ar    1  UNL1        0.0192
     39 C         142.3828  139.7349  158.1297 C.ar    1  UNL1        0.0838
     40 N         142.6751  140.7972  159.1476 N.ar    1  UNL1       -0.2287
@<TRIPOS>BOND
     1    25    26    1
     2    26    27    1
     3    26    28    2
     4    28    24    1
     5    24     1    1
     6     1     2   ar
     7     2    13    1
     8    13    14    1
     9    14    15    1
    10    15    16    1
    11    16    17    1
    12    17    18    1
    13    17    19    1
    14     2     3   ar
    15     3    22    1
    16    22    23    3
    17     3     4   ar
    18     4     5   ar
    19     5     6   ar
    20     6     7    2
    21     6     8   ar
    22     8    29    1
    23    29    30    1
    24    30    31   ar
    25    31    32   ar
    26    32    33    1
    27    32    34   ar
    28    34    35   ar
    29    35    36   ar
    30    36    37   ar
    31    37    38   ar
    32    38    39   ar
    33    39    40   ar
    34     8     9   ar
    35     9    10    2
    36     9    11   ar
    37    11    12    1
    38     5     1   ar
    39    40    30   ar
    40    19    13    1
    41    11     4   ar
    42    39    34   ar
    43    18    20    1
    44    18    21    1
@<TRIPOS>MOLECULE
*****
 40 44 0 0 0
SMALL
GASTEIGER

@<TRIPOS>ATOM
      1 N         140.4858  140.0194  161.0289 N.ar    1  UNL1       -0.3063
      2 C         141.4174  141.0095  161.6628 C.ar    1  UNL1        0.1240
      3 C         142.5707  141.2251  160.7281 C.ar    1  UNL1        0.1156
      4 C         142.3517  140.3683  159.5166 C.ar    1  UNL1        0.0966
      5 C         141.0633  139.6232  159.7024 C.ar    1  UNL1        0.1349
      6 C         140.5823  138.6801  158.6398 C.ar    1  UNL1        0.2819
      7 O         139.2938  137.9349  158.8256 O.2     1  UNL1       -0.2652
      8 N         141.3898  138.4821  157.3913 N.ar    1  UNL1       -0.2400
      9 C         142.6783  139.2273  157.2054 C.ar    1  UNL1        0.3343
     10 O         143.4858  139.0294  155.9569 O.2     1  UNL1       -0.2462
     11 N         143.1593  140.1704  158.2680 N.ar    1  UNL1       -0.2770
     12 C         144.4477  140.9156  158.0822 C.3     1  UNL1        0.1351
     13 N         141.2289  141.6683  162.9972 N.pl3   1  UNL1       -0.2926
     14 C         141.7444  141.0057  164.2402 C.3     1  UNL1        0.0922
     15 C         141.5559  141.6645  165.5745 C.3     1  UNL1        0.0229
     16 C         140.8519  142.9859  165.6658 C.3     1  UNL1        0.0190
     17 C         140.3365  143.6485  164.4227 C.3     1  UNL1        0.0709
     18 N         139.6325  144.9700  164.5140 N.3     1  UNL1       -0.3208
     19 C         140.5250  142.9897  163.0884 C.3     1  UNL1        0.1075
     20 H         139.5940  145.2681  165.4887 H       1  UNL1        0.1189
     21 H         138.6846  144.8761  164.1494 H       1  UNL1        0.1189
     22 C         143.7378  142.1374  160.9637 C.1     1  UNL1        0.1047
     23 N         144.9050  143.0497  161.1993 N.1     1  UNL1       -0.1907
     24 C         139.2022  139.5143  161.6179 C.3     1  UNL1        0.1332
     25 C         138.7479  137.8249  165.1802 C.3     1  UNL1        0.0261
     26 C         138.7184  138.8456  164.0814 C.2     1  UNL1       -0.0460
     27 C         138.1756  140.2184  164.3475 C.3     1  UNL1        0.0261
     28 C         139.2317  138.4936  162.7167 C.2     1  UNL1       -0.0102
     29 C         140.9088  137.5390  156.3286 C.3     1  UNL1        0.1791
     30 C         141.6330  136.2476  156.0883 C.ar    1  UNL1        0.1617
     31 N         141.4709  135.5286  154.7819 N.ar    1  UNL1       -0.2330
     32 C         142.1951  134.2372  154.5415 C.ar    1  UNL1        0.0622
     33 C         142.0330  133.5183  153.2351 C.3     1  UNL1        0.0522
     34 C         143.0814  133.6647  155.6077 C.ar    1  UNL1        0.0313
     35 C         143.8055  132.3732  155.3674 C.ar    1  UNL1        0.0027
     36 C         144.6918  131.8007  156.4336 C.ar    1  UNL1        0.0001
     37 C         144.8539  132.5197  157.7401 C.ar    1  UNL1        0.0015
     38 C         144.1297  133.8111  157.9804 C.ar    1  UNL1        0.0192
     39 C         143.2435  134.3836  156.9142 C.ar    1  UNL1        0.0838
     40 N         142.5192  135.6751  157.1545 N.ar    1  UNL1       -0.2287
@<TRIPOS>BOND
     1    25    26    1
     2    26    27    1
     3    26    28    2
     4    28    24    1
     5    24     1    1
     6     1     2   ar
     7     2    13    1
     8    13    14    1
     9    14    15    1
    10    15    16    1
    11    16    17    1
    12    17    18    1
    13    17    19    1
    14     2     3   ar
    15     3    22    1
    16    22    23    3
    17     3     4   ar
    18     4     5   ar
    19     5     6   ar
    20     6     7    2
    21     6     8   ar
    22     8    29    1
    23    29    30    1
    24    30    31   ar
    25    31    32   ar
    26    32    33    1
    27    32    34   ar
    28    34    35   ar
    29    35    36   ar
    30    36    37   ar
    31    37    38   ar
    32    38    39   ar
    33    39    40   ar
    34     8     9   ar
    35     9    10    2
    36     9    11   ar
    37    11    12    1
    38     5     1   ar
    39    40    30   ar
    40    19    13    1
    41    11     4   ar
    42    39    34   ar
    43    18    20    1
    44    18    21    1
