@<TRIPOS>MOLECULE
*****
 33 34 0 0 0
SMALL
GASTEIGER

@<TRIPOS>ATOM
      1 C         140.3305  137.5581  163.5842 C.3     1  UNL1        0.1700
      2 O         141.3049  137.0055  162.5866 O.3     1  UNL1       -0.3793
      3 H         142.2056  137.0810  162.9384 H       1  UNL1        0.2106
      4 C         140.8245  138.1107  164.8882 C.3     1  UNL1        0.1056
      5 N         141.7316  139.3053  164.9010 N.3     1  UNL1       -0.2702
      6 C         141.3525  140.5431  164.1432 C.3     1  UNL1        0.0721
      7 C         139.9165  141.9711  165.7707 C.3     1  UNL1        0.0014
      8 C         141.1136  141.8287  164.8780 C.3     1  UNL1        0.0160
      9 C         142.0717  142.9720  164.7202 C.3     1  UNL1        0.0014
     10 C         143.0178  139.2621  165.6716 C.3     1  UNL1        0.0769
     11 C         142.9924  139.1772  167.1690 C.3     1  UNL1        0.0437
     12 C         142.2351  140.1982  167.9654 C.ar    1  UNL1       -0.0199
     13 C         142.8119  141.5675  168.1709 C.ar    1  UNL1       -0.0033
     14 C         142.0546  142.5884  168.9673 C.ar    1  UNL1        0.0119
     15 C         140.7206  142.2400  169.5581 C.ar    1  UNL1        0.0682
     16 CL        139.9634  143.2610  170.3546 Cl      1  UNL1       -0.0814
     17 C         140.1439  140.8707  169.3526 C.ar    1  UNL1        0.0679
     18 CL        138.8099  140.5223  169.9435 Cl      1  UNL1       -0.0814
     19 C         140.9011  139.8498  168.5563 C.ar    1  UNL1        0.0080
     20 C         138.8621  137.5580  163.2778 C.3     1  UNL1        0.2358
     21 O         138.3444  138.3086  162.0868 O.3     1  UNL1       -0.4728
     22 C         138.2826  139.8071  162.1136 C.ar    1  UNL1        0.1388
     23 C         139.0155  140.6066  161.0773 C.ar    1  UNL1        0.0382
     24 C         138.9537  142.1051  161.1040 C.ar    1  UNL1        0.0190
     25 C         138.1590  142.8041  162.1671 C.ar    1  UNL1        0.0646
     26 C         137.4262  142.0046  163.2033 C.ar    1  UNL1        0.0190
     27 C         137.4880  140.5061  163.1765 C.ar    1  UNL1        0.0382
     28 N         138.0972  144.3026  162.1938 N.pl3   1  UNL1       -0.2187
     29 H         137.2332  144.7617  162.0839 H       1  UNL1        0.1734
     30 S         139.3518  145.1016  162.3880 S.O2    1  UNL1        0.0558
     31 C         140.6063  145.9006  162.5822 C.3     1  UNL1        0.1996
     32 O         139.4399  145.3232  160.9071 O.2     1  UNL1       -0.1544
     33 O         139.2636  144.8800  163.8689 O.2     1  UNL1       -0.1544
@<TRIPOS>BOND
     1     7     8    1
     2     8     9    1
     3     8     6    1
     4     6     5    1
     5     5    10    1
     6    10    11    1
     7    11    12    1
     8    12    13   ar
     9    13    14   ar
    10    14    15   ar
    11    15    16    1
    12    15    17   ar
    13    17    18    1
    14    17    19   ar
    15     5     4    1
    16     4     1    1
    17     1     2    1
    18     1    20    1
    19    20    21    1
    20    21    22    1
    21    22    23   ar
    22    23    24   ar
    23    24    25   ar
    24    25    28    1
    25    28    30    1
    26    30    31    1
    27    30    32    2
    28    30    33    2
    29    25    26   ar
    30    26    27   ar
    31    19    12   ar
    32    27    22   ar
    33     2     3    1
    34    28    29    1
@<TRIPOS>MOLECULE
*****
 33 34 0 0 0
SMALL
GASTEIGER

@<TRIPOS>ATOM
      1 C         138.0875  143.8036  164.2726 C.3     1  UNL1        0.1700
      2 O         138.4674  144.7470  165.3752 O.3     1  UNL1       -0.3793
      3 H         138.5591  144.2538  166.2054 H       1  UNL1        0.2106
      4 C         137.9115  142.3426  164.5631 C.3     1  UNL1        0.1056
      5 N         139.0385  141.3861  164.3084 N.3     1  UNL1       -0.2702
      6 C         138.7449  139.9594  163.9501 C.3     1  UNL1        0.0721
      7 C         139.3666  137.5670  164.7502 C.3     1  UNL1        0.0014
      8 C         138.7406  138.9041  165.0160 C.3     1  UNL1        0.0160
      9 C         138.1103  139.1857  166.3477 C.3     1  UNL1        0.0014
     10 C         140.4591  141.8563  164.4120 C.3     1  UNL1        0.0769
     11 C         141.4316  141.1185  165.2836 C.3     1  UNL1        0.0437
     12 C         141.3011  141.1852  166.7765 C.ar    1  UNL1       -0.0199
     13 C         141.5765  139.9680  167.6086 C.ar    1  UNL1       -0.0033
     14 C         141.4460  140.0348  169.1014 C.ar    1  UNL1        0.0119
     15 C         141.0400  141.3188  169.7620 C.ar    1  UNL1        0.0682
     16 CL        140.9094  141.3856  171.2549 Cl      1  UNL1       -0.0814
     17 C         140.7646  142.5361  168.9299 C.ar    1  UNL1        0.0679
     18 CL        140.3586  143.8201  169.5906 Cl      1  UNL1       -0.0814
     19 C         140.8951  142.4692  167.4371 C.ar    1  UNL1        0.0080
     20 C         137.8837  144.3212  162.8796 C.3     1  UNL1        0.2358
     21 O         138.9364  145.1730  162.2345 O.3     1  UNL1       -0.4728
     22 C         140.3811  144.7811  162.3306 C.ar    1  UNL1        0.1388
     23 C         141.2544  145.3892  163.3879 C.ar    1  UNL1        0.0382
     24 C         142.6991  144.9973  163.4840 C.ar    1  UNL1        0.0190
     25 C         143.2705  143.9973  162.5229 C.ar    1  UNL1        0.0646
     26 C         142.3972  143.3894  161.4657 C.ar    1  UNL1        0.0190
     27 C         140.9525  143.7813  161.3695 C.ar    1  UNL1        0.0382
     28 N         144.7152  143.6054  162.6190 N.pl3   1  UNL1       -0.2187
     29 H         145.4134  144.2130  162.2834 H       1  UNL1        0.1734
     30 S         145.0961  142.2878  163.2264 S.O2    1  UNL1        0.0558
     31 C         145.4769  140.9703  163.8338 C.3     1  UNL1        0.1996
     32 O         144.8200  142.8384  164.5941 O.2     1  UNL1       -0.1544
     33 O         145.3722  141.7372  161.8588 O.2     1  UNL1       -0.1544
@<TRIPOS>BOND
     1     7     8    1
     2     8     9    1
     3     8     6    1
     4     6     5    1
     5     5    10    1
     6    10    11    1
     7    11    12    1
     8    12    13   ar
     9    13    14   ar
    10    14    15   ar
    11    15    16    1
    12    15    17   ar
    13    17    18    1
    14    17    19   ar
    15     5     4    1
    16     4     1    1
    17     1     2    1
    18     1    20    1
    19    20    21    1
    20    21    22    1
    21    22    23   ar
    22    23    24   ar
    23    24    25   ar
    24    25    28    1
    25    28    30    1
    26    30    31    1
    27    30    32    2
    28    30    33    2
    29    25    26   ar
    30    26    27   ar
    31    19    12   ar
    32    27    22   ar
    33     2     3    1
    34    28    29    1
@<TRIPOS>MOLECULE
*****
 33 34 0 0 0
SMALL
GASTEIGER

@<TRIPOS>ATOM
      1 C         139.6854  141.4605  161.8068 C.3     1  UNL1        0.1700
      2 O         141.1784  141.4433  161.6642 O.3     1  UNL1       -0.3793
      3 H         141.4670  142.2382  161.1891 H       1  UNL1        0.2106
      4 C         138.8916  142.6035  161.2469 C.3     1  UNL1        0.1056
      5 N         138.9298  143.9437  161.9194 N.3     1  UNL1       -0.2702
      6 C         137.8814  144.3064  162.9291 C.3     1  UNL1        0.0721
      7 C         138.6080  144.9014  165.3515 C.3     1  UNL1        0.0014
      8 C         138.0565  143.9139  164.3661 C.3     1  UNL1        0.0160
      9 C         137.6803  142.5340  164.8180 C.3     1  UNL1        0.0014
     10 C         140.0164  144.9213  161.5823 C.3     1  UNL1        0.0769
     11 C         140.9792  145.3675  162.6425 C.3     1  UNL1        0.0437
     12 C         142.1488  144.5015  163.0059 C.ar    1  UNL1       -0.0199
     13 C         143.2454  144.2655  162.0100 C.ar    1  UNL1       -0.0033
     14 C         144.4150  143.3996  162.3735 C.ar    1  UNL1        0.0119
     15 C         144.4880  142.7696  163.7328 C.ar    1  UNL1        0.0682
     16 CL        145.6577  141.9036  164.0962 Cl      1  UNL1       -0.0814
     17 C         143.3914  143.0056  164.7287 C.ar    1  UNL1        0.0679
     18 CL        143.4645  142.3756  166.0880 Cl      1  UNL1       -0.0814
     19 C         142.2219  143.8715  164.3652 C.ar    1  UNL1        0.0080
     20 C         138.9860  140.3347  162.5093 C.3     1  UNL1        0.2358
     21 O         139.7505  139.4420  163.4412 O.3     1  UNL1       -0.4728
     22 C         139.5426  139.5504  164.9228 C.ar    1  UNL1        0.1388
     23 C         140.4819  140.3735  165.7537 C.ar    1  UNL1        0.0382
     24 C         140.2740  140.4819  167.2353 C.ar    1  UNL1        0.0190
     25 C         139.1268  139.7672  167.8859 C.ar    1  UNL1        0.0646
     26 C         138.1876  138.9441  167.0550 C.ar    1  UNL1        0.0190
     27 C         138.3956  138.8357  165.5734 C.ar    1  UNL1        0.0382
     28 N         138.9189  139.8756  169.3675 N.pl3   1  UNL1       -0.2187
     29 H         138.0922  139.5297  169.7752 H       1  UNL1        0.1734
     30 S         139.9706  140.5110  170.2279 S.O2    1  UNL1        0.0558
     31 C         141.0223  141.1464  171.0883 C.3     1  UNL1        0.1996
     32 O         139.1544  141.7675  170.2977 O.2     1  UNL1       -0.1544
     33 O         140.7868  139.2545  170.1581 O.2     1  UNL1       -0.1544
@<TRIPOS>BOND
     1     7     8    1
     2     8     9    1
     3     8     6    1
     4     6     5    1
     5     5    10    1
     6    10    11    1
     7    11    12    1
     8    12    13   ar
     9    13    14   ar
    10    14    15   ar
    11    15    16    1
    12    15    17   ar
    13    17    18    1
    14    17    19   ar
    15     5     4    1
    16     4     1    1
    17     1     2    1
    18     1    20    1
    19    20    21    1
    20    21    22    1
    21    22    23   ar
    22    23    24   ar
    23    24    25   ar
    24    25    28    1
    25    28    30    1
    26    30    31    1
    27    30    32    2
    28    30    33    2
    29    25    26   ar
    30    26    27   ar
    31    19    12   ar
    32    27    22   ar
    33     2     3    1
    34    28    29    1
@<TRIPOS>MOLECULE
*****
 33 34 0 0 0
SMALL
GASTEIGER

@<TRIPOS>ATOM
      1 C         144.5255  139.5183  163.4952 C.3     1  UNL1        0.1700
      2 O         144.5457  138.9512  162.1067 O.3     1  UNL1       -0.3793
      3 H         143.9157  138.2158  162.0486 H       1  UNL1        0.2106
      4 C         143.6144  138.9311  164.5320 C.3     1  UNL1        0.1056
      5 N         142.1285  138.9632  164.3295 N.3     1  UNL1       -0.2702
      6 C         141.3942  137.7075  163.9633 C.3     1  UNL1        0.0721
      7 C         139.0806  137.5893  165.1395 C.3     1  UNL1        0.0014
      8 C         139.8962  137.7100  163.8864 C.3     1  UNL1        0.0160
      9 C         139.2137  137.8333  162.5563 C.3     1  UNL1        0.0014
     10 C         141.3769  140.2509  164.4933 C.3     1  UNL1        0.0769
     11 C         141.9195  141.3277  165.3855 C.3     1  UNL1        0.0437
     12 C         141.6135  141.3100  166.8539 C.ar    1  UNL1       -0.0199
     13 C         141.7685  140.0401  167.6371 C.ar    1  UNL1       -0.0033
     14 C         141.4625  140.0224  169.1054 C.ar    1  UNL1        0.0119
     15 C         141.0016  141.2747  169.7906 C.ar    1  UNL1        0.0682
     16 CL        140.6956  141.2569  171.2590 Cl      1  UNL1       -0.0814
     17 C         140.8466  142.5445  169.0075 C.ar    1  UNL1        0.0679
     18 CL        140.3857  143.7968  169.6926 Cl      1  UNL1       -0.0814
     19 C         141.1526  142.5622  167.5391 C.ar    1  UNL1        0.0080
     20 C         145.4164  140.6727  163.8468 C.3     1  UNL1        0.2358
     21 O         145.3985  141.9164  163.0084 O.3     1  UNL1       -0.4728
     22 C         144.2049  142.8243  163.0388 C.ar    1  UNL1        0.1388
     23 C         144.1412  143.9464  164.0322 C.ar    1  UNL1        0.0382
     24 C         142.9475  144.8543  164.0626 C.ar    1  UNL1        0.0190
     25 C         141.8176  144.6401  163.0994 C.ar    1  UNL1        0.0646
     26 C         141.8814  143.5181  162.1060 C.ar    1  UNL1        0.0190
     27 C         143.0751  142.6102  162.0757 C.ar    1  UNL1        0.0382
     28 N         140.6240  145.5480  163.1297 N.pl3   1  UNL1       -0.2187
     29 H         140.7485  146.5245  163.1432 H       1  UNL1        0.1734
     30 S         139.2406  144.9681  163.1395 S.O2    1  UNL1        0.0558
     31 C         137.8573  144.3882  163.1493 C.3     1  UNL1        0.1996
     32 O         139.0004  145.5177  161.7647 O.2     1  UNL1       -0.1544
     33 O         139.4808  144.4184  164.5143 O.2     1  UNL1       -0.1544
@<TRIPOS>BOND
     1     7     8    1
     2     8     9    1
     3     8     6    1
     4     6     5    1
     5     5    10    1
     6    10    11    1
     7    11    12    1
     8    12    13   ar
     9    13    14   ar
    10    14    15   ar
    11    15    16    1
    12    15    17   ar
    13    17    18    1
    14    17    19   ar
    15     5     4    1
    16     4     1    1
    17     1     2    1
    18     1    20    1
    19    20    21    1
    20    21    22    1
    21    22    23   ar
    22    23    24   ar
    23    24    25   ar
    24    25    28    1
    25    28    30    1
    26    30    31    1
    27    30    32    2
    28    30    33    2
    29    25    26   ar
    30    26    27   ar
    31    19    12   ar
    32    27    22   ar
    33     2     3    1
    34    28    29    1
@<TRIPOS>MOLECULE
*****
 33 34 0 0 0
SMALL
GASTEIGER

@<TRIPOS>ATOM
      1 C         138.1699  141.5578  162.9831 C.3     1  UNL1        0.1700
      2 O         136.7717  141.0371  162.8291 O.3     1  UNL1       -0.3793
      3 H         136.7891  140.2071  162.3274 H       1  UNL1        0.2106
      4 C         139.3220  140.7986  162.3946 C.3     1  UNL1        0.1056
      5 N         139.4267  139.3164  162.6001 N.3     1  UNL1       -0.2702
      6 C         138.7614  138.6742  163.7813 C.3     1  UNL1        0.0721
      7 C         140.6084  139.0834  165.5621 C.3     1  UNL1        0.0014
      8 C         139.1598  139.0684  165.1726 C.3     1  UNL1        0.0160
      9 C         138.1099  139.4477  166.1744 C.3     1  UNL1        0.0014
     10 C         140.1967  138.4765  161.6246 C.3     1  UNL1        0.0769
     11 C         141.5475  137.9420  161.9979 C.3     1  UNL1        0.0437
     12 C         142.6513  138.8870  162.3704 C.ar    1  UNL1       -0.0199
     13 C         143.4599  138.6445  163.6103 C.ar    1  UNL1       -0.0033
     14 C         144.5636  139.5895  163.9826 C.ar    1  UNL1        0.0119
     15 C         144.8588  140.7770  163.1151 C.ar    1  UNL1        0.0682
     16 CL        145.9626  141.7221  163.4876 Cl      1  UNL1       -0.0814
     17 C         144.0503  141.0196  161.8752 C.ar    1  UNL1        0.0679
     18 CL        144.3455  142.2071  161.0077 Cl      1  UNL1       -0.0814
     19 C         142.9465  140.0746  161.5029 C.ar    1  UNL1        0.0080
     20 C         138.4161  142.8377  163.7255 C.3     1  UNL1        0.2358
     21 O         139.8156  143.3516  163.8908 O.3     1  UNL1       -0.4728
     22 C         140.6452  142.9060  165.0585 C.ar    1  UNL1        0.1388
     23 C         142.1112  142.6434  164.8802 C.ar    1  UNL1        0.0382
     24 C         142.9408  142.1979  166.0478 C.ar    1  UNL1        0.0190
     25 C         142.3042  142.0150  167.3938 C.ar    1  UNL1        0.0646
     26 C         140.8382  142.2776  167.5720 C.ar    1  UNL1        0.0190
     27 C         140.0087  142.7231  166.4043 C.ar    1  UNL1        0.0382
     28 N         143.1338  141.5695  168.5614 N.pl3   1  UNL1       -0.2187
     29 H         143.9703  142.0406  168.7792 H       1  UNL1        0.1734
     30 S         142.6887  140.4060  169.3971 S.O2    1  UNL1        0.0558
     31 C         142.2437  139.2426  170.2328 C.3     1  UNL1        0.1996
     32 O         142.3707  141.3395  170.5274 O.2     1  UNL1       -0.1544
     33 O         143.0067  139.4725  168.2669 O.2     1  UNL1       -0.1544
@<TRIPOS>BOND
     1     7     8    1
     2     8     9    1
     3     8     6    1
     4     6     5    1
     5     5    10    1
     6    10    11    1
     7    11    12    1
     8    12    13   ar
     9    13    14   ar
    10    14    15   ar
    11    15    16    1
    12    15    17   ar
    13    17    18    1
    14    17    19   ar
    15     5     4    1
    16     4     1    1
    17     1     2    1
    18     1    20    1
    19    20    21    1
    20    21    22    1
    21    22    23   ar
    22    23    24   ar
    23    24    25   ar
    24    25    28    1
    25    28    30    1
    26    30    31    1
    27    30    32    2
    28    30    33    2
    29    25    26   ar
    30    26    27   ar
    31    19    12   ar
    32    27    22   ar
    33     2     3    1
    34    28    29    1
@<TRIPOS>MOLECULE
*****
 33 34 0 0 0
SMALL
GASTEIGER

@<TRIPOS>ATOM
      1 C         137.9135  139.7327  162.5016 C.3     1  UNL1        0.1700
      2 O         137.1159  139.2212  161.3388 O.3     1  UNL1       -0.3793
      3 H         136.3523  139.8007  161.1905 H       1  UNL1        0.2106
      4 C         137.4718  140.9682  163.2285 C.3     1  UNL1        0.1056
      5 N         137.9461  142.3163  162.7729 N.3     1  UNL1       -0.2702
      6 C         137.7495  143.5166  163.6509 C.3     1  UNL1        0.0721
      7 C         139.5442  142.6238  165.3037 C.3     1  UNL1        0.0014
      8 C         138.6281  143.7212  164.8493 C.3     1  UNL1        0.0160
      9 C         138.5906  145.0232  165.5932 C.3     1  UNL1        0.0014
     10 C         138.6168  142.4642  161.4395 C.3     1  UNL1        0.0769
     11 C         139.7986  143.3760  161.2915 C.3     1  UNL1        0.0437
     12 C         141.0339  143.1416  162.1096 C.ar    1  UNL1       -0.0199
     13 C         141.5466  141.7465  162.3109 C.ar    1  UNL1       -0.0033
     14 C         142.7818  141.5121  163.1290 C.ar    1  UNL1        0.0119
     15 C         143.5043  142.6730  163.7457 C.ar    1  UNL1        0.0682
     16 CL        144.7396  142.4386  164.5639 Cl      1  UNL1       -0.0814
     17 C         142.9916  144.0681  163.5444 C.ar    1  UNL1        0.0679
     18 CL        143.7141  145.2290  164.1612 Cl      1  UNL1       -0.0814
     19 C         141.7564  144.3025  162.7264 C.ar    1  UNL1        0.0080
     20 C         139.1527  139.0087  162.9375 C.3     1  UNL1        0.2358
     21 O         139.1503  138.2181  164.2122 O.3     1  UNL1       -0.4728
     22 C         139.6529  138.8399  165.4814 C.ar    1  UNL1        0.1388
     23 C         138.6892  139.2002  166.5730 C.ar    1  UNL1        0.0382
     24 C         139.1919  139.8219  167.8422 C.ar    1  UNL1        0.0190
     25 C         140.6583  140.0835  168.0196 C.ar    1  UNL1        0.0646
     26 C         141.6219  139.7232  166.9280 C.ar    1  UNL1        0.0190
     27 C         141.1192  139.1015  165.6589 C.ar    1  UNL1        0.0382
     28 N         141.1610  140.7053  169.2888 N.pl3   1  UNL1       -0.2187
     29 H         141.8225  140.2298  169.8415 H       1  UNL1        0.1734
     30 S         140.6556  142.0516  169.7158 S.O2    1  UNL1        0.0558
     31 C         140.1504  143.3978  170.1427 C.3     1  UNL1        0.1996
     32 O         139.9561  141.4191  170.8822 O.2     1  UNL1       -0.1544
     33 O         141.3551  142.6840  168.5493 O.2     1  UNL1       -0.1544
@<TRIPOS>BOND
     1     7     8    1
     2     8     9    1
     3     8     6    1
     4     6     5    1
     5     5    10    1
     6    10    11    1
     7    11    12    1
     8    12    13   ar
     9    13    14   ar
    10    14    15   ar
    11    15    16    1
    12    15    17   ar
    13    17    18    1
    14    17    19   ar
    15     5     4    1
    16     4     1    1
    17     1     2    1
    18     1    20    1
    19    20    21    1
    20    21    22    1
    21    22    23   ar
    22    23    24   ar
    23    24    25   ar
    24    25    28    1
    25    28    30    1
    26    30    31    1
    27    30    32    2
    28    30    33    2
    29    25    26   ar
    30    26    27   ar
    31    19    12   ar
    32    27    22   ar
    33     2     3    1
    34    28    29    1
@<TRIPOS>MOLECULE
*****
 33 34 0 0 0
SMALL
GASTEIGER

@<TRIPOS>ATOM
      1 C         144.7427  141.3601  162.1600 C.3     1  UNL1        0.1700
      2 O         145.9551  142.1244  162.6027 O.3     1  UNL1       -0.3793
      3 H         146.0035  142.9631  162.1178 H       1  UNL1        0.2106
      4 C         143.8341  141.9354  161.1143 C.3     1  UNL1        0.1056
      5 N         142.6537  142.7665  161.5215 N.3     1  UNL1       -0.2702
      6 C         142.8449  144.2043  161.9042 C.3     1  UNL1        0.0721
      7 C         141.2808  144.7651  163.9014 C.3     1  UNL1        0.0014
      8 C         142.6614  144.6316  163.3302 C.3     1  UNL1        0.0160
      9 C         143.8584  144.9255  164.1851 C.3     1  UNL1        0.0014
     10 C         141.2820  142.1600  161.5459 C.3     1  UNL1        0.0769
     11 C         141.1091  140.7101  161.8892 C.3     1  UNL1        0.0437
     12 C         140.2610  140.3127  163.0609 C.ar    1  UNL1       -0.0199
     13 C         139.4249  141.3403  163.7643 C.ar    1  UNL1       -0.0033
     14 C         138.5768  140.9429  164.9360 C.ar    1  UNL1        0.0119
     15 C         138.5649  139.5179  165.4042 C.ar    1  UNL1        0.0682
     16 CL        137.7168  139.1205  166.5759 Cl      1  UNL1       -0.0814
     17 C         139.4010  138.4903  164.7007 C.ar    1  UNL1        0.0679
     18 CL        139.3891  137.0653  165.1689 Cl      1  UNL1       -0.0814
     19 C         140.2491  138.8877  163.5291 C.ar    1  UNL1        0.0080
     20 C         144.4390  140.0207  162.7629 C.3     1  UNL1        0.2358
     21 O         144.6581  139.7910  164.2289 O.3     1  UNL1       -0.4728
     22 C         143.5847  140.1504  165.2131 C.ar    1  UNL1        0.1388
     23 C         143.0028  139.0955  166.1067 C.ar    1  UNL1        0.0382
     24 C         141.9293  139.4550  167.0909 C.ar    1  UNL1        0.0190
     25 C         141.4379  140.8693  167.1814 C.ar    1  UNL1        0.0646
     26 C         142.0198  141.9241  166.2877 C.ar    1  UNL1        0.0190
     27 C         143.0933  141.5647  165.3036 C.ar    1  UNL1        0.0382
     28 N         140.3645  141.2288  168.1655 N.pl3   1  UNL1       -0.2187
     29 H         139.5513  141.6920  167.8597 H       1  UNL1        0.1734
     30 S         140.5300  140.8825  169.6156 S.O2    1  UNL1        0.0558
     31 C         140.6955  140.5362  171.0657 C.3     1  UNL1        0.1996
     32 O         139.4446  139.8544  169.4941 O.2     1  UNL1       -0.1544
     33 O         141.6154  141.9106  169.7372 O.2     1  UNL1       -0.1544
@<TRIPOS>BOND
     1     7     8    1
     2     8     9    1
     3     8     6    1
     4     6     5    1
     5     5    10    1
     6    10    11    1
     7    11    12    1
     8    12    13   ar
     9    13    14   ar
    10    14    15   ar
    11    15    16    1
    12    15    17   ar
    13    17    18    1
    14    17    19   ar
    15     5     4    1
    16     4     1    1
    17     1     2    1
    18     1    20    1
    19    20    21    1
    20    21    22    1
    21    22    23   ar
    22    23    24   ar
    23    24    25   ar
    24    25    28    1
    25    28    30    1
    26    30    31    1
    27    30    32    2
    28    30    33    2
    29    25    26   ar
    30    26    27   ar
    31    19    12   ar
    32    27    22   ar
    33     2     3    1
    34    28    29    1
@<TRIPOS>MOLECULE
*****
 33 34 0 0 0
SMALL
GASTEIGER

@<TRIPOS>ATOM
      1 C         141.1090  145.3254  161.4012 C.3     1  UNL1        0.1700
      2 O         141.6033  145.5997  160.0119 O.3     1  UNL1       -0.3793
      3 H         142.3512  145.0148  159.8134 H       1  UNL1        0.2106
      4 C         141.7729  144.2735  162.2394 C.3     1  UNL1        0.1056
      5 N         142.6910  143.2742  161.6003 N.3     1  UNL1       -0.2702
      6 C         142.1272  142.1733  160.7516 C.3     1  UNL1        0.0721
      7 C         141.4937  140.2209  162.3444 C.3     1  UNL1        0.0014
      8 C         142.2802  140.7436  161.1789 C.3     1  UNL1        0.0160
      9 C         143.2197  139.8366  160.4408 C.3     1  UNL1        0.0014
     10 C         144.1728  143.3758  161.8097 C.3     1  UNL1        0.0769
     11 C         144.7532  143.1642  163.1766 C.3     1  UNL1        0.0437
     12 C         144.4521  141.9039  163.9324 C.ar    1  UNL1       -0.0199
     13 C         145.1485  140.6264  163.5682 C.ar    1  UNL1       -0.0033
     14 C         144.8473  139.3662  164.3241 C.ar    1  UNL1        0.0119
     15 C         143.8497  139.3837  165.4441 C.ar    1  UNL1        0.0682
     16 CL        143.5486  138.1235  166.2000 Cl      1  UNL1       -0.0814
     17 C         143.1533  140.6613  165.8083 C.ar    1  UNL1        0.0679
     18 CL        142.1557  140.6788  166.9283 Cl      1  UNL1       -0.0814
     19 C         143.4545  141.9214  165.0525 C.ar    1  UNL1        0.0080
     20 C         139.9507  146.1030  161.9524 C.3     1  UNL1        0.2358
     21 O         138.5754  145.5045  161.9479 O.3     1  UNL1       -0.4728
     22 C         138.3311  144.1812  162.6108 C.ar    1  UNL1        0.1388
     23 C         138.2941  144.0877  164.1075 C.ar    1  UNL1        0.0382
     24 C         138.0499  142.7645  164.7704 C.ar    1  UNL1        0.0190
     25 C         137.8426  141.5348  163.9366 C.ar    1  UNL1        0.0646
     26 C         137.8796  141.6284  162.4400 C.ar    1  UNL1        0.0190
     27 C         138.1239  142.9516  161.7771 C.ar    1  UNL1        0.0382
     28 N         137.5983  140.2116  164.5995 N.pl3   1  UNL1       -0.2187
     29 H         136.6815  139.9406  164.8346 H       1  UNL1        0.1734
     30 S         138.7510  139.3013  164.9042 S.O2    1  UNL1        0.0558
     31 C         139.9036  138.3910  165.2090 C.3     1  UNL1        0.1996
     32 O         138.5837  138.6419  163.5674 O.2     1  UNL1       -0.1544
     33 O         138.9183  139.9607  166.2410 O.2     1  UNL1       -0.1544
@<TRIPOS>BOND
     1     7     8    1
     2     8     9    1
     3     8     6    1
     4     6     5    1
     5     5    10    1
     6    10    11    1
     7    11    12    1
     8    12    13   ar
     9    13    14   ar
    10    14    15   ar
    11    15    16    1
    12    15    17   ar
    13    17    18    1
    14    17    19   ar
    15     5     4    1
    16     4     1    1
    17     1     2    1
    18     1    20    1
    19    20    21    1
    20    21    22    1
    21    22    23   ar
    22    23    24   ar
    23    24    25   ar
    24    25    28    1
    25    28    30    1
    26    30    31    1
    27    30    32    2
    28    30    33    2
    29    25    26   ar
    30    26    27   ar
    31    19    12   ar
    32    27    22   ar
    33     2     3    1
    34    28    29    1
@<TRIPOS>MOLECULE
*****
 33 34 0 0 0
SMALL
GASTEIGER

@<TRIPOS>ATOM
      1 C         137.6221  140.2856  162.4102 C.3     1  UNL1        0.1700
      2 O         136.5676  141.2165  162.9312 O.3     1  UNL1       -0.3793
      3 H         136.5303  141.1538  163.8985 H       1  UNL1        0.2106
      4 C         138.4191  139.4461  163.3641 C.3     1  UNL1        0.1056
      5 N         138.8297  140.0064  164.6935 N.3     1  UNL1       -0.2702
      6 C         139.0109  141.4861  164.8601 C.3     1  UNL1        0.0721
      7 C         141.4739  141.4045  164.0374 C.3     1  UNL1        0.0014
      8 C         140.3863  142.0829  164.8165 C.3     1  UNL1        0.0160
      9 C         140.6742  143.3581  165.5520 C.3     1  UNL1        0.0014
     10 C         139.0591  139.0871  165.8563 C.3     1  UNL1        0.0769
     11 C         139.0218  139.6248  167.2561 C.3     1  UNL1        0.0437
     12 C         140.2263  140.3120  167.8280 C.ar    1  UNL1       -0.0199
     13 C         141.5935  139.7356  167.6081 C.ar    1  UNL1       -0.0033
     14 C         142.7979  140.4227  168.1800 C.ar    1  UNL1        0.0119
     15 C         142.6351  141.6863  168.9717 C.ar    1  UNL1        0.0682
     16 CL        143.8397  142.3735  169.5436 Cl      1  UNL1       -0.0814
     17 C         141.2679  142.2627  169.1916 C.ar    1  UNL1        0.0679
     18 CL        141.1051  143.5263  169.9834 Cl      1  UNL1       -0.0814
     19 C         140.0635  141.5755  168.6198 C.ar    1  UNL1        0.0080
     20 C         137.8794  140.1942  160.9353 C.3     1  UNL1        0.2358
     21 O         138.2263  141.4284  160.1566 O.3     1  UNL1       -0.4728
     22 C         139.3731  142.2920  160.5914 C.ar    1  UNL1        0.1388
     23 C         139.1224  143.4929  161.4546 C.ar    1  UNL1        0.0382
     24 C         140.2691  144.3565  161.8894 C.ar    1  UNL1        0.0190
     25 C         141.6666  144.0192  161.4612 C.ar    1  UNL1        0.0646
     26 C         141.9172  142.8183  160.5981 C.ar    1  UNL1        0.0190
     27 C         140.7705  141.9547  160.1632 C.ar    1  UNL1        0.0382
     28 N         142.8134  144.8828  161.8960 N.pl3   1  UNL1       -0.2187
     29 H         143.1273  145.6133  161.3155 H       1  UNL1        0.1734
     30 S         143.4819  144.6334  163.2155 S.O2    1  UNL1        0.0558
     31 C         144.1504  144.3839  164.5349 C.3     1  UNL1        0.1996
     32 O         142.5056  145.5549  163.8844 O.2     1  UNL1       -0.1544
     33 O         144.4582  143.7118  162.5466 O.2     1  UNL1       -0.1544
@<TRIPOS>BOND
     1     7     8    1
     2     8     9    1
     3     8     6    1
     4     6     5    1
     5     5    10    1
     6    10    11    1
     7    11    12    1
     8    12    13   ar
     9    13    14   ar
    10    14    15   ar
    11    15    16    1
    12    15    17   ar
    13    17    18    1
    14    17    19   ar
    15     5     4    1
    16     4     1    1
    17     1     2    1
    18     1    20    1
    19    20    21    1
    20    21    22    1
    21    22    23   ar
    22    23    24   ar
    23    24    25   ar
    24    25    28    1
    25    28    30    1
    26    30    31    1
    27    30    32    2
    28    30    33    2
    29    25    26   ar
    30    26    27   ar
    31    19    12   ar
    32    27    22   ar
    33     2     3    1
    34    28    29    1
