@<TRIPOS>MOLECULE
*****
 25 27 0 0 0
SMALL
GASTEIGER

@<TRIPOS>ATOM
      1 C         142.7666  139.3268  166.0096 C.3     1  UNL1        0.1201
      2 C         143.6468  140.3386  165.3374 C.ar    1  UNL1       -0.0023
      3 C         144.6475  139.8978  164.3107 C.ar    1  UNL1       -0.0026
      4 C         145.5276  140.9096  163.6386 C.ar    1  UNL1       -0.0003
      5 C         145.4069  142.3621  163.9932 C.ar    1  UNL1       -0.0000
      6 C         144.4061  142.8028  165.0199 C.ar    1  UNL1       -0.0003
      7 C         143.5261  141.7911  165.6920 C.ar    1  UNL1       -0.0024
      8 C         142.5252  142.2318  166.7188 C.ar    1  UNL1       -0.0003
      9 C         141.1556  142.6694  166.2915 C.ar    1  UNL1       -0.0000
     10 C         140.1548  143.1101  167.3182 C.ar    1  UNL1       -0.0000
     11 C         140.5236  143.1132  168.7722 C.ar    1  UNL1       -0.0000
     12 C         141.8932  142.6756  169.1994 C.ar    1  UNL1       -0.0000
     13 C         142.8941  142.2349  168.1727 C.ar    1  UNL1       -0.0000
     14 C         140.2086  139.2779  166.4615 C.2     1  UNL1        0.2254
     15 O         140.4535  139.6635  167.8902 O.2     1  UNL1       -0.2749
     16 N         141.3651  139.1095  165.5212 N.am    1  UNL1       -0.2757
     17 C         141.1202  138.7239  164.0925 C.3     1  UNL1        0.0927
     18 C         140.9412  139.6698  162.9421 C.3     1  UNL1        0.0383
     19 C         140.7216  138.8552  161.7019 C.3     1  UNL1        0.0704
     20 N         140.7649  137.4057  162.0858 N.3     1  UNL1       -0.2960
     21 C         141.0113  137.3246  163.5632 C.3     1  UNL1        0.0887
     22 H         141.5184  136.9368  161.5830 H       1  UNL1        0.1233
     23 C         138.0801  140.1649  165.2645 C.3     1  UNL1        0.0096
     24 C         138.8071  139.0606  165.9730 C.3     1  UNL1        0.0767
     25 C         138.1326  137.7389  166.1930 C.3     1  UNL1        0.0096
@<TRIPOS>BOND
     1    23    24    1
     2    24    25    1
     3    24    14    1
     4    14    15    2
     5    14    16   am
     6    16     1    1
     7     1     2    1
     8     2     3   ar
     9     3     4   ar
    10     4     5   ar
    11     5     6   ar
    12     6     7   ar
    13     7     8    1
    14     8     9   ar
    15     9    10   ar
    16    10    11   ar
    17    11    12   ar
    18    12    13   ar
    19    17    16    1
    20    17    18    1
    21    18    19    1
    22    19    20    1
    23    20    21    1
    24     7     2   ar
    25    13     8   ar
    26    21    17    1
    27    20    22    1
@<TRIPOS>MOLECULE
*****
 25 27 0 0 0
SMALL
GASTEIGER

@<TRIPOS>ATOM
      1 C         141.2030  141.8611  165.8300 C.3     1  UNL1        0.1201
      2 C         140.0202  142.5907  165.2652 C.ar    1  UNL1       -0.0023
      3 C         140.0344  144.0881  165.1778 C.ar    1  UNL1       -0.0026
      4 C         138.8517  144.8176  164.6131 C.ar    1  UNL1       -0.0003
      5 C         137.6548  144.0498  164.1358 C.ar    1  UNL1       -0.0000
      6 C         137.6406  142.5524  164.2232 C.ar    1  UNL1       -0.0003
      7 C         138.8233  141.8229  164.7879 C.ar    1  UNL1       -0.0024
      8 C         138.8091  140.3255  164.8754 C.ar    1  UNL1       -0.0003
      9 C         138.2896  139.6512  166.1105 C.ar    1  UNL1       -0.0000
     10 C         138.2755  138.1539  166.1980 C.ar    1  UNL1       -0.0000
     11 C         138.7808  137.3307  165.0503 C.ar    1  UNL1       -0.0000
     12 C         139.3003  138.0049  163.8152 C.ar    1  UNL1       -0.0000
     13 C         139.3145  139.5024  163.7278 C.ar    1  UNL1       -0.0000
     14 C         142.6127  139.8285  165.0354 C.2     1  UNL1        0.2254
     15 O         141.9657  138.9707  166.0820 O.2     1  UNL1       -0.2749
     16 N         142.2314  141.2738  164.9094 N.am    1  UNL1       -0.2757
     17 C         142.8785  142.1317  163.8629 C.3     1  UNL1        0.0927
     18 C         142.4245  142.2812  162.4410 C.3     1  UNL1        0.0383
     19 C         143.3586  143.2326  161.7538 C.3     1  UNL1        0.0704
     20 N         144.3898  143.6711  162.7510 N.3     1  UNL1       -0.2960
     21 C         144.0931  142.9907  164.0544 C.3     1  UNL1        0.0887
     22 H         144.3468  144.6831  162.8711 H       1  UNL1        0.1233
     23 C         145.1002  139.3825  164.4327 C.3     1  UNL1        0.0096
     24 C         143.6411  139.2412  164.1149 C.3     1  UNL1        0.0767
     25 C         143.2104  138.5126  162.8764 C.3     1  UNL1        0.0096
@<TRIPOS>BOND
     1    23    24    1
     2    24    25    1
     3    24    14    1
     4    14    15    2
     5    14    16   am
     6    16     1    1
     7     1     2    1
     8     2     3   ar
     9     3     4   ar
    10     4     5   ar
    11     5     6   ar
    12     6     7   ar
    13     7     8    1
    14     8     9   ar
    15     9    10   ar
    16    10    11   ar
    17    11    12   ar
    18    12    13   ar
    19    17    16    1
    20    17    18    1
    21    18    19    1
    22    19    20    1
    23    20    21    1
    24     7     2   ar
    25    13     8   ar
    26    21    17    1
    27    20    22    1
@<TRIPOS>MOLECULE
*****
 25 27 0 0 0
SMALL
GASTEIGER

@<TRIPOS>ATOM
      1 C         141.0570  140.6738  162.9832 C.3     1  UNL1        0.1201
      2 C         142.2723  140.1244  163.6698 C.ar    1  UNL1       -0.0023
      3 C         143.6364  140.3868  163.1039 C.ar    1  UNL1       -0.0026
      4 C         144.8516  139.8374  163.7904 C.ar    1  UNL1       -0.0003
      5 C         144.7026  139.0256  165.0429 C.ar    1  UNL1       -0.0000
      6 C         143.3385  138.7632  165.6089 C.ar    1  UNL1       -0.0003
      7 C         142.1234  139.3126  164.9223 C.ar    1  UNL1       -0.0024
      8 C         140.7592  139.0502  165.4882 C.ar    1  UNL1       -0.0003
      9 C         140.2404  139.8923  166.6159 C.ar    1  UNL1       -0.0000
     10 C         138.8763  139.6299  167.1819 C.ar    1  UNL1       -0.0000
     11 C         138.0309  138.5255  166.6201 C.ar    1  UNL1       -0.0000
     12 C         138.5496  137.6834  165.4924 C.ar    1  UNL1       -0.0000
     13 C         139.9138  137.9458  164.9264 C.ar    1  UNL1       -0.0000
     14 C         139.1802  142.2708  163.8063 C.2     1  UNL1        0.2254
     15 O         138.2634  141.0981  163.9911 O.2     1  UNL1       -0.2749
     16 N         140.5771  142.0587  163.3024 N.am    1  UNL1       -0.2757
     17 C         141.4939  143.2314  163.1176 C.3     1  UNL1        0.0927
     18 C         142.4056  143.8104  164.1586 C.3     1  UNL1        0.0383
     19 C         143.1352  144.9678  163.5438 C.3     1  UNL1        0.0704
     20 N         142.6744  145.1042  162.1228 N.3     1  UNL1       -0.2960
     21 C         141.6600  144.0310  161.8595 C.3     1  UNL1        0.0887
     22 H         143.4667  144.9944  161.4899 H       1  UNL1        0.1233
     23 C         137.9277  144.4358  163.1035 C.3     1  UNL1        0.0096
     24 C         138.7003  143.6556  164.1255 C.3     1  UNL1        0.0767
     25 C         138.9929  144.2603  165.4667 C.3     1  UNL1        0.0096
@<TRIPOS>BOND
     1    23    24    1
     2    24    25    1
     3    24    14    1
     4    14    15    2
     5    14    16   am
     6    16     1    1
     7     1     2    1
     8     2     3   ar
     9     3     4   ar
    10     4     5   ar
    11     5     6   ar
    12     6     7   ar
    13     7     8    1
    14     8     9   ar
    15     9    10   ar
    16    10    11   ar
    17    11    12   ar
    18    12    13   ar
    19    17    16    1
    20    17    18    1
    21    18    19    1
    22    19    20    1
    23    20    21    1
    24     7     2   ar
    25    13     8   ar
    26    21    17    1
    27    20    22    1
@<TRIPOS>MOLECULE
*****
 25 27 0 0 0
SMALL
GASTEIGER

@<TRIPOS>ATOM
      1 C         140.2418  140.5150  162.6830 C.3     1  UNL1        0.1201
      2 C         139.6246  139.6585  163.7487 C.ar    1  UNL1       -0.0023
      3 C         139.7175  138.1642  163.6572 C.ar    1  UNL1       -0.0026
      4 C         139.1003  137.3079  164.7229 C.ar    1  UNL1       -0.0003
      5 C         138.3903  137.9458  165.8801 C.ar    1  UNL1       -0.0000
      6 C         138.2975  139.4401  165.9715 C.ar    1  UNL1       -0.0003
      7 C         138.9147  140.2965  164.9058 C.ar    1  UNL1       -0.0024
      8 C         138.8218  141.7908  164.9972 C.ar    1  UNL1       -0.0003
      9 C         139.8246  142.5563  165.8087 C.ar    1  UNL1       -0.0000
     10 C         139.7319  144.0506  165.9001 C.ar    1  UNL1       -0.0000
     11 C         138.6362  144.7795  165.1801 C.ar    1  UNL1       -0.0000
     12 C         137.6334  144.0141  164.3686 C.ar    1  UNL1       -0.0000
     13 C         137.7263  142.5197  164.2772 C.ar    1  UNL1       -0.0000
     14 C         141.6540  142.6950  162.7418 C.2     1  UNL1        0.2254
     15 O         140.4613  143.4800  162.2825 O.2     1  UNL1       -0.2749
     16 N         141.5443  141.2124  162.9421 N.am    1  UNL1       -0.2757
     17 C         142.7370  140.4273  163.4014 C.3     1  UNL1        0.0927
     18 C         143.0915  140.1142  164.8249 C.3     1  UNL1        0.0383
     19 C         144.3582  139.3109  164.8212 C.3     1  UNL1        0.0704
     20 N         144.7866  139.1276  163.3954 N.3     1  UNL1       -0.2960
     21 C         143.7847  139.8176  162.5180 C.3     1  UNL1        0.0887
     22 H         144.8189  138.1336  163.1687 H       1  UNL1        0.1233
     23 C         143.2418  143.9692  164.3558 C.3     1  UNL1        0.0096
     24 C         142.9565  143.3924  163.0009 C.3     1  UNL1        0.0767
     25 C         143.9737  143.5130  161.9051 C.3     1  UNL1        0.0096
@<TRIPOS>BOND
     1    23    24    1
     2    24    25    1
     3    24    14    1
     4    14    15    2
     5    14    16   am
     6    16     1    1
     7     1     2    1
     8     2     3   ar
     9     3     4   ar
    10     4     5   ar
    11     5     6   ar
    12     6     7   ar
    13     7     8    1
    14     8     9   ar
    15     9    10   ar
    16    10    11   ar
    17    11    12   ar
    18    12    13   ar
    19    17    16    1
    20    17    18    1
    21    18    19    1
    22    19    20    1
    23    20    21    1
    24     7     2   ar
    25    13     8   ar
    26    21    17    1
    27    20    22    1
@<TRIPOS>MOLECULE
*****
 25 27 0 0 0
SMALL
GASTEIGER

@<TRIPOS>ATOM
      1 C         139.4127  140.0267  166.6848 C.3     1  UNL1        0.1201
      2 C         139.2011  139.4645  165.3103 C.ar    1  UNL1       -0.0023
      3 C         139.1756  137.9791  165.1033 C.ar    1  UNL1       -0.0026
      4 C         138.9641  137.4170  163.7288 C.ar    1  UNL1       -0.0003
      5 C         138.7780  138.3402  162.5614 C.ar    1  UNL1       -0.0000
      6 C         138.8035  139.8256  162.7684 C.ar    1  UNL1       -0.0003
      7 C         139.0151  140.3878  164.1428 C.ar    1  UNL1       -0.0024
      8 C         139.0406  141.8732  164.3499 C.ar    1  UNL1       -0.0003
      9 C         137.7577  142.6251  164.5471 C.ar    1  UNL1       -0.0000
     10 C         137.7832  144.1105  164.7542 C.ar    1  UNL1       -0.0000
     11 C         139.0916  144.8441  164.7640 C.ar    1  UNL1       -0.0000
     12 C         140.3745  144.0922  164.5667 C.ar    1  UNL1       -0.0000
     13 C         140.3489  142.6067  164.3596 C.ar    1  UNL1       -0.0000
     14 C         140.8802  139.9159  168.8259 C.2     1  UNL1        0.2254
     15 O         139.6455  139.9774  169.6754 O.2     1  UNL1       -0.2749
     16 N         140.7638  139.9405  167.3306 N.am    1  UNL1       -0.2757
     17 C         141.9985  139.8790  166.4811 C.3     1  UNL1        0.0927
     18 C         142.6707  138.6305  165.9916 C.3     1  UNL1        0.0383
     19 C         143.8655  139.0350  165.1799 C.3     1  UNL1        0.0704
     20 N         143.9317  140.5335  165.1677 N.3     1  UNL1       -0.2960
     21 C         142.7779  141.0551  165.9719 C.3     1  UNL1        0.0887
     22 H         143.8677  140.8751  164.2088 H       1  UNL1        0.1233
     23 C         143.0457  141.0727  169.6760 C.3     1  UNL1        0.0096
     24 C         142.2314  139.8297  169.4716 C.3     1  UNL1        0.0767
     25 C         142.7682  138.5003  169.9131 C.3     1  UNL1        0.0096
@<TRIPOS>BOND
     1    23    24    1
     2    24    25    1
     3    24    14    1
     4    14    15    2
     5    14    16   am
     6    16     1    1
     7     1     2    1
     8     2     3   ar
     9     3     4   ar
    10     4     5   ar
    11     5     6   ar
    12     6     7   ar
    13     7     8    1
    14     8     9   ar
    15     9    10   ar
    16    10    11   ar
    17    11    12   ar
    18    12    13   ar
    19    17    16    1
    20    17    18    1
    21    18    19    1
    22    19    20    1
    23    20    21    1
    24     7     2   ar
    25    13     8   ar
    26    21    17    1
    27    20    22    1
@<TRIPOS>MOLECULE
*****
 25 27 0 0 0
SMALL
GASTEIGER

@<TRIPOS>ATOM
      1 C         140.4915  140.4242  164.3061 C.3     1  UNL1        0.1201
      2 C         140.6287  140.3217  165.7964 C.ar    1  UNL1       -0.0023
      3 C         139.4260  140.0230  166.6415 C.ar    1  UNL1       -0.0026
      4 C         139.5633  139.9205  168.1316 C.ar    1  UNL1       -0.0003
      5 C         140.9032  140.1167  168.7767 C.ar    1  UNL1       -0.0000
      6 C         142.1059  140.4155  167.9316 C.ar    1  UNL1       -0.0003
      7 C         141.9686  140.5180  166.4414 C.ar    1  UNL1       -0.0024
      8 C         143.1714  140.8167  165.5962 C.ar    1  UNL1       -0.0003
      9 C         143.6113  142.2362  165.3928 C.ar    1  UNL1       -0.0000
     10 C         144.8139  142.5350  164.5477 C.ar    1  UNL1       -0.0000
     11 C         145.5768  141.4142  163.9059 C.ar    1  UNL1       -0.0000
     12 C         145.1369  139.9946  164.1092 C.ar    1  UNL1       -0.0000
     13 C         143.9342  139.6959  164.9544 C.ar    1  UNL1       -0.0000
     14 C         141.4449  142.0256  162.4959 C.2     1  UNL1        0.2254
     15 O         142.3582  140.9375  162.0143 O.2     1  UNL1       -0.2749
     16 N         140.5116  141.7690  163.6419 N.am    1  UNL1       -0.2757
     17 C         139.5983  142.8571  164.1235 C.3     1  UNL1        0.0927
     18 C         139.9360  143.9050  165.1422 C.3     1  UNL1        0.0383
     19 C         138.7334  144.7839  165.3193 C.3     1  UNL1        0.0704
     20 N         137.6525  144.2791  164.4099 N.3     1  UNL1       -0.2960
     21 C         138.1871  143.0883  163.6709 C.3     1  UNL1        0.0887
     22 H         137.3893  145.0083  163.7471 H       1  UNL1        0.1233
     23 C         140.5331  143.6579  160.6920 C.3     1  UNL1        0.0096
     24 C         141.4650  143.3704  161.8317 C.3     1  UNL1        0.0767
     25 C         142.4170  144.4276  162.3071 C.3     1  UNL1        0.0096
@<TRIPOS>BOND
     1    23    24    1
     2    24    25    1
     3    24    14    1
     4    14    15    2
     5    14    16   am
     6    16     1    1
     7     1     2    1
     8     2     3   ar
     9     3     4   ar
    10     4     5   ar
    11     5     6   ar
    12     6     7   ar
    13     7     8    1
    14     8     9   ar
    15     9    10   ar
    16    10    11   ar
    17    11    12   ar
    18    12    13   ar
    19    17    16    1
    20    17    18    1
    21    18    19    1
    22    19    20    1
    23    20    21    1
    24     7     2   ar
    25    13     8   ar
    26    21    17    1
    27    20    22    1
@<TRIPOS>MOLECULE
*****
 25 27 0 0 0
SMALL
GASTEIGER

@<TRIPOS>ATOM
      1 C         142.2734  139.9408  166.3074 C.3     1  UNL1        0.1201
      2 C         140.9138  139.3230  166.1657 C.ar    1  UNL1       -0.0023
      3 C         140.6738  138.2683  165.1266 C.ar    1  UNL1       -0.0026
      4 C         139.3143  137.6506  164.9850 C.ar    1  UNL1       -0.0003
      5 C         138.1947  138.0877  165.8825 C.ar    1  UNL1       -0.0000
      6 C         138.4347  139.1424  166.9216 C.ar    1  UNL1       -0.0003
      7 C         139.7942  139.7601  167.0632 C.ar    1  UNL1       -0.0024
      8 C         140.0342  140.8150  168.1024 C.ar    1  UNL1       -0.0003
      9 C         140.2279  142.2440  167.6897 C.ar    1  UNL1       -0.0000
     10 C         140.4679  143.2988  168.7288 C.ar    1  UNL1       -0.0000
     11 C         140.5143  142.9246  170.1807 C.ar    1  UNL1       -0.0000
     12 C         140.3207  141.4955  170.5934 C.ar    1  UNL1       -0.0000
     13 C         140.0806  140.4407  169.5542 C.ar    1  UNL1       -0.0000
     14 C         144.1674  140.0323  164.5313 C.2     1  UNL1        0.2254
     15 O         144.7693  138.7856  165.1089 O.2     1  UNL1       -0.2749
     16 N         142.9195  140.6099  165.1306 N.am    1  UNL1       -0.2757
     17 C         142.3176  141.8565  164.5530 C.3     1  UNL1        0.0927
     18 C         141.2436  141.9145  163.5075 C.3     1  UNL1        0.0383
     19 C         140.9463  143.3579  163.2278 C.3     1  UNL1        0.0704
     20 N         141.8366  144.1920  164.1006 N.3     1  UNL1       -0.2960
     21 C         142.6841  143.2641  164.9196 C.3     1  UNL1        0.0887
     22 H         141.2699  144.7763  164.7152 H       1  UNL1        0.1233
     23 C         144.4066  140.3245  161.9609 C.3     1  UNL1        0.0096
     24 C         144.8135  140.7014  163.3545 C.3     1  UNL1        0.0767
     25 C         145.8665  141.7475  163.5714 C.3     1  UNL1        0.0096
@<TRIPOS>BOND
     1    23    24    1
     2    24    25    1
     3    24    14    1
     4    14    15    2
     5    14    16   am
     6    16     1    1
     7     1     2    1
     8     2     3   ar
     9     3     4   ar
    10     4     5   ar
    11     5     6   ar
    12     6     7   ar
    13     7     8    1
    14     8     9   ar
    15     9    10   ar
    16    10    11   ar
    17    11    12   ar
    18    12    13   ar
    19    17    16    1
    20    17    18    1
    21    18    19    1
    22    19    20    1
    23    20    21    1
    24     7     2   ar
    25    13     8   ar
    26    21    17    1
    27    20    22    1
@<TRIPOS>MOLECULE
*****
 25 27 0 0 0
SMALL
GASTEIGER

@<TRIPOS>ATOM
      1 C         140.7452  142.1150  162.1506 C.3     1  UNL1        0.1201
      2 C         139.7580  142.8502  163.0080 C.ar    1  UNL1       -0.0023
      3 C         138.3044  142.8601  162.6380 C.ar    1  UNL1       -0.0026
      4 C         137.3173  143.5953  163.4953 C.ar    1  UNL1       -0.0003
      5 C         137.7838  144.3205  164.7227 C.ar    1  UNL1       -0.0000
      6 C         139.2374  144.3106  165.0927 C.ar    1  UNL1       -0.0003
      7 C         140.2245  143.5755  164.2353 C.ar    1  UNL1       -0.0024
      8 C         141.6781  143.5655  164.6053 C.ar    1  UNL1       -0.0003
      9 C         142.6151  144.5632  163.9915 C.ar    1  UNL1       -0.0000
     10 C         144.0687  144.5533  164.3614 C.ar    1  UNL1       -0.0000
     11 C         144.5854  143.5457  165.3452 C.ar    1  UNL1       -0.0000
     12 C         143.6485  142.5480  165.9590 C.ar    1  UNL1       -0.0000
     13 C         142.1948  142.5579  165.5890 C.ar    1  UNL1       -0.0000
     14 C         142.7742  140.5693  162.6445 C.2     1  UNL1        0.2254
     15 O         143.7104  141.6680  162.2371 O.2     1  UNL1       -0.2749
     16 N         141.2915  140.7928  162.6013 N.am    1  UNL1       -0.2757
     17 C         140.3552  139.6940  163.0088 C.3     1  UNL1        0.0927
     18 C         139.8191  139.4594  164.3899 C.3     1  UNL1        0.0383
     19 C         138.9232  138.2573  164.3414 C.3     1  UNL1        0.0704
     20 N         138.9056  137.7490  162.9302 N.3     1  UNL1       -0.2960
     21 C         139.7906  138.6369  162.1067 C.3     1  UNL1        0.0887
     22 H         137.9536  137.7744  162.5650 H       1  UNL1        0.1233
     23 C         143.5478  138.1501  162.0977 C.3     1  UNL1        0.0096
     24 C         143.3205  139.2470  163.0953 C.3     1  UNL1        0.0767
     25 C         143.6394  139.0217  164.5436 C.3     1  UNL1        0.0096
@<TRIPOS>BOND
     1    23    24    1
     2    24    25    1
     3    24    14    1
     4    14    15    2
     5    14    16   am
     6    16     1    1
     7     1     2    1
     8     2     3   ar
     9     3     4   ar
    10     4     5   ar
    11     5     6   ar
    12     6     7   ar
    13     7     8    1
    14     8     9   ar
    15     9    10   ar
    16    10    11   ar
    17    11    12   ar
    18    12    13   ar
    19    17    16    1
    20    17    18    1
    21    18    19    1
    22    19    20    1
    23    20    21    1
    24     7     2   ar
    25    13     8   ar
    26    21    17    1
    27    20    22    1
@<TRIPOS>MOLECULE
*****
 25 27 0 0 0
SMALL
GASTEIGER

@<TRIPOS>ATOM
      1 C         139.9714  141.3247  163.4382 C.3     1  UNL1        0.1201
      2 C         139.2998  142.4963  164.0914 C.ar    1  UNL1       -0.0023
      3 C         137.8062  142.6267  164.0443 C.ar    1  UNL1       -0.0026
      4 C         137.1348  143.7982  164.6974 C.ar    1  UNL1       -0.0003
      5 C         137.9568  144.8393  165.3977 C.ar    1  UNL1       -0.0000
      6 C         139.4504  144.7088  165.4448 C.ar    1  UNL1       -0.0003
      7 C         140.1218  143.5373  164.7916 C.ar    1  UNL1       -0.0024
      8 C         141.6155  143.4069  164.8387 C.ar    1  UNL1       -0.0003
      9 C         142.4621  144.1082  163.8182 C.ar    1  UNL1       -0.0000
     10 C         143.9556  143.9778  163.8652 C.ar    1  UNL1       -0.0000
     11 C         144.6027  143.1460  164.9328 C.ar    1  UNL1       -0.0000
     12 C         143.7560  142.4447  165.9533 C.ar    1  UNL1       -0.0000
     13 C         142.2624  142.5752  165.9062 C.ar    1  UNL1       -0.0000
     14 C         141.6488  139.3989  163.9154 C.2     1  UNL1        0.2254
     15 O         142.4755  139.8276  162.7395 O.2     1  UNL1       -0.2749
     16 N         140.3966  140.1474  164.2647 N.am    1  UNL1       -0.2757
     17 C         139.5699  139.7187  165.4406 C.3     1  UNL1        0.0927
     18 C         138.3367  138.8663  165.3874 C.3     1  UNL1        0.0383
     19 C         137.8358  138.6878  166.7900 C.3     1  UNL1        0.0704
     20 N         138.7595  139.4299  167.7100 N.3     1  UNL1       -0.2960
     21 C         139.8311  140.0670  166.8759 C.3     1  UNL1        0.0887
     22 H         139.1790  138.7815  168.3763 H       1  UNL1        0.1233
     23 C         143.1271  138.3873  165.7971 C.3     1  UNL1        0.0096
     24 C         142.0741  138.2216  164.7419 C.3     1  UNL1        0.0767
     25 C         141.4462  136.8786  164.5131 C.3     1  UNL1        0.0096
@<TRIPOS>BOND
     1    23    24    1
     2    24    25    1
     3    24    14    1
     4    14    15    2
     5    14    16   am
     6    16     1    1
     7     1     2    1
     8     2     3   ar
     9     3     4   ar
    10     4     5   ar
    11     5     6   ar
    12     6     7   ar
    13     7     8    1
    14     8     9   ar
    15     9    10   ar
    16    10    11   ar
    17    11    12   ar
    18    12    13   ar
    19    17    16    1
    20    17    18    1
    21    18    19    1
    22    19    20    1
    23    20    21    1
    24     7     2   ar
    25    13     8   ar
    26    21    17    1
    27    20    22    1
