@<TRIPOS>MOLECULE
*****
 44 49 0 0 0
SMALL
GASTEIGER

@<TRIPOS>ATOM
      1 N         141.3803  136.5163  155.3539 N.ar    1  UNL1       -0.2937
      2 C         141.2579  136.9070  153.9109 C.ar    1  UNL1        0.1798
      3 N         140.3900  138.1280  153.8333 N.ar    1  UNL1       -0.2195
      4 C         139.9759  138.4918  155.2283 C.ar    1  UNL1        0.1483
      5 C         139.1207  139.6014  155.7643 C.ar    1  UNL1        0.1518
      6 N         138.8774  139.7150  157.2401 N.ar    1  UNL1       -0.2031
      7 C         139.4895  138.7189  158.1799 C.ar    1  UNL1        0.2093
      8 N         140.3448  137.6093  157.6439 N.ar    1  UNL1       -0.2003
      9 C         140.5880  137.4957  156.1682 C.ar    1  UNL1        0.1678
     10 C         143.1255  133.1383  156.1339 C.3     1  UNL1        0.0977
     11 C         142.5137  132.5613  154.8919 C.3     1  UNL1        0.0136
     12 C         142.2434  133.9880  155.2679 C.3     1  UNL1        0.0344
     13 C         142.1583  135.3508  155.8888 C.3     1  UNL1        0.1180
     14 C         142.9879  135.3434  157.1385 C.3     1  UNL1        0.1582
     15 O         143.1851  136.5003  158.0727 O.3     1  UNL1       -0.3800
     16 C         143.5857  133.9760  157.2900 C.3     1  UNL1        0.1471
     17 O         144.4856  133.5255  158.4022 O.3     1  UNL1       -0.3814
     18 H         143.7655  136.2317  158.8020 H       1  UNL1        0.2105
     19 H         144.6277  134.2592  159.0205 H       1  UNL1        0.2105
     20 C         143.9293  129.6775  157.9022 C.3     1  UNL1        0.1107
     21 N         143.2036  130.9243  157.4910 N.am    1  UNL1       -0.3026
     22 C         143.8513  131.8915  156.5450 C.2     1  UNL1        0.2240
     23 O         145.2246  131.6122  156.0102 O.2     1  UNL1       -0.2750
     24 H         142.3023  131.1076  157.8420 H       1  UNL1        0.1495
     25 N         138.5086  140.5975  154.8245 N.pl3   1  UNL1       -0.3131
     26 H         138.7503  140.5868  153.8702 H       1  UNL1        0.1485
     27 C         137.5284  141.6098  155.3388 C.3     1  UNL1        0.1154
     28 C         136.0633  141.2891  155.3650 C.ar    1  UNL1       -0.0018
     29 C         135.1853  141.6983  154.2198 C.ar    1  UNL1       -0.0026
     30 C         133.7202  141.3776  154.2460 C.ar    1  UNL1        0.0006
     31 C         133.1331  140.6478  155.4176 C.ar    1  UNL1        0.0114
     32 C         134.0111  140.2386  156.5630 C.ar    1  UNL1        0.0574
     33 CL        133.4240  139.5087  157.7345 Cl      1  UNL1       -0.0823
     34 C         135.4762  140.5593  156.5367 C.ar    1  UNL1        0.0088
     35 C         139.2463  138.8325  159.6557 C.1     1  UNL1       -0.0210
     36 C         139.0031  138.9460  161.1315 C.1     1  UNL1       -0.0567
     37 C         138.7599  139.0595  162.6073 C.ar    1  UNL1        0.0444
     38 C         138.3952  140.3850  163.2075 C.ar    1  UNL1        0.0107
     39 C         138.1521  140.4986  164.6833 C.ar    1  UNL1        0.0326
     40 C         138.2736  139.2867  165.5589 C.ar    1  UNL1        0.1674
     41 F         138.0304  139.4003  167.0347 F       1  UNL1       -0.2018
     42 C         138.6383  137.9613  164.9587 C.ar    1  UNL1        0.1680
     43 F         138.7599  136.7495  165.8343 F       1  UNL1       -0.2018
     44 C         138.8815  137.8477  163.4829 C.ar    1  UNL1        0.0402
@<TRIPOS>BOND
     1    20    21    1
     2    21    22   am
     3    22    23    2
     4    10    22    1
     5    10    11    1
     6    12    11    1
     7    12    13    1
     8    13     1    1
     9     1     2   ar
    10     2     3   ar
    11     3     4   ar
    12     4     5   ar
    13     5    25    1
    14    25    27    1
    15    27    28    1
    16    28    29   ar
    17    29    30   ar
    18    30    31   ar
    19    31    32   ar
    20    32    33    1
    21    32    34   ar
    22     5     6   ar
    23     6     7   ar
    24     7    35    1
    25    35    36    3
    26    36    37    1
    27    37    38   ar
    28    38    39   ar
    29    39    40   ar
    30    40    41    1
    31    40    42   ar
    32    42    43    1
    33    42    44   ar
    34     7     8   ar
    35     8     9   ar
    36    13    14    1
    37    14    15    1
    38    14    16    1
    39    16    17    1
    40    12    10    1
    41     9     1   ar
    42    16    10    1
    43     9     4   ar
    44    34    28   ar
    45    44    37   ar
    46    21    24    1
    47    25    26    1
    48    15    18    1
    49    17    19    1
@<TRIPOS>MOLECULE
*****
 44 49 0 0 0
SMALL
GASTEIGER

@<TRIPOS>ATOM
      1 N         140.9105  137.1793  155.3149 N.ar    1  UNL1       -0.2937
      2 C         140.7596  137.6888  153.9122 C.ar    1  UNL1        0.1798
      3 N         139.9599  138.9568  153.9632 N.ar    1  UNL1       -0.2195
      4 C         139.6167  139.2310  155.3974 C.ar    1  UNL1        0.1483
      5 C         138.8451  140.3391  156.0506 C.ar    1  UNL1        0.1518
      6 N         138.6610  140.3487  157.5393 N.ar    1  UNL1       -0.2031
      7 C         139.2485  139.2501  158.3747 C.ar    1  UNL1        0.2093
      8 N         140.0201  138.1419  157.7214 N.ar    1  UNL1       -0.2003
      9 C         140.2042  138.1324  156.2328 C.ar    1  UNL1        0.1678
     10 C         142.4023  133.6332  155.8298 C.3     1  UNL1        0.0977
     11 C         141.5469  133.1344  154.7031 C.3     1  UNL1        0.0136
     12 C         141.4864  134.5772  155.1087 C.3     1  UNL1        0.0344
     13 C         141.6398  135.9351  155.7273 C.3     1  UNL1        0.1180
     14 C         142.6505  135.8303  156.8307 C.3     1  UNL1        0.1582
     15 O         143.1094  136.9513  157.7154 O.3     1  UNL1       -0.3800
     16 C         143.1218  134.4076  156.8941 C.3     1  UNL1        0.1471
     17 O         144.1346  133.8562  157.8532 O.3     1  UNL1       -0.3814
     18 H         143.7668  136.6174  158.3457 H       1  UNL1        0.2105
     19 H         144.4465  134.5652  158.4371 H       1  UNL1        0.2105
     20 C         144.8535  130.5211  155.5915 C.3     1  UNL1        0.1107
     21 N         144.2034  131.8395  155.2925 N.am    1  UNL1       -0.3026
     22 C         143.0524  132.3148  156.1287 C.2     1  UNL1        0.2240
     23 O         142.5514  131.4718  157.2638 O.2     1  UNL1       -0.2750
     24 H         144.5322  132.3929  154.5475 H       1  UNL1        0.1495
     25 N         138.2576  141.4377  155.2152 N.pl3   1  UNL1       -0.3131
     26 H         138.3192  141.3963  154.2335 H       1  UNL1        0.1485
     27 C         137.5761  142.5995  155.8756 C.3     1  UNL1        0.1154
     28 C         138.2534  143.9369  155.9251 C.ar    1  UNL1       -0.0018
     29 C         137.7360  145.0710  155.0908 C.ar    1  UNL1       -0.0026
     30 C         138.4133  146.4085  155.1404 C.ar    1  UNL1        0.0006
     31 C         139.6080  146.6119  156.0243 C.ar    1  UNL1        0.0114
     32 C         140.1255  145.4778  156.8586 C.ar    1  UNL1        0.0574
     33 CL        141.3202  145.6811  157.7425 Cl      1  UNL1       -0.0823
     34 C         139.4482  144.1403  156.8091 C.ar    1  UNL1        0.0088
     35 C         139.0644  139.2596  159.8633 C.1     1  UNL1       -0.0210
     36 C         138.8804  139.2691  161.3519 C.1     1  UNL1       -0.0567
     37 C         138.6963  139.2787  162.8406 C.ar    1  UNL1        0.0444
     38 C         138.4195  140.5689  163.5538 C.ar    1  UNL1        0.0107
     39 C         138.2354  140.5785  165.0424 C.ar    1  UNL1        0.0326
     40 C         138.3281  139.2978  165.8179 C.ar    1  UNL1        0.1674
     41 F         138.1440  139.3074  167.3065 F       1  UNL1       -0.2018
     42 C         138.6049  138.0076  165.1047 C.ar    1  UNL1        0.1680
     43 F         138.6977  136.7269  165.8801 F       1  UNL1       -0.2018
     44 C         138.7890  137.9980  163.6160 C.ar    1  UNL1        0.0402
@<TRIPOS>BOND
     1    20    21    1
     2    21    22   am
     3    22    23    2
     4    10    22    1
     5    10    11    1
     6    12    11    1
     7    12    13    1
     8    13     1    1
     9     1     2   ar
    10     2     3   ar
    11     3     4   ar
    12     4     5   ar
    13     5    25    1
    14    25    27    1
    15    27    28    1
    16    28    29   ar
    17    29    30   ar
    18    30    31   ar
    19    31    32   ar
    20    32    33    1
    21    32    34   ar
    22     5     6   ar
    23     6     7   ar
    24     7    35    1
    25    35    36    3
    26    36    37    1
    27    37    38   ar
    28    38    39   ar
    29    39    40   ar
    30    40    41    1
    31    40    42   ar
    32    42    43    1
    33    42    44   ar
    34     7     8   ar
    35     8     9   ar
    36    13    14    1
    37    14    15    1
    38    14    16    1
    39    16    17    1
    40    12    10    1
    41     9     1   ar
    42    16    10    1
    43     9     4   ar
    44    34    28   ar
    45    44    37   ar
    46    21    24    1
    47    25    26    1
    48    15    18    1
    49    17    19    1
@<TRIPOS>MOLECULE
*****
 44 49 0 0 0
SMALL
GASTEIGER

@<TRIPOS>ATOM
      1 N         138.6726  141.7574  159.1340 N.ar    1  UNL1       -0.2937
      2 C         138.0386  140.3996  159.0682 C.ar    1  UNL1        0.1798
      3 N         137.3447  140.2757  157.7441 N.ar    1  UNL1       -0.2195
      4 C         137.5499  141.5569  156.9916 C.ar    1  UNL1        0.1483
      5 C         137.0954  142.0081  155.6351 C.ar    1  UNL1        0.1518
      6 N         137.4616  143.3750  155.1377 N.ar    1  UNL1       -0.2031
      7 C         138.2823  144.2908  155.9967 C.ar    1  UNL1        0.2093
      8 N         138.7367  143.8396  157.3532 N.ar    1  UNL1       -0.2003
      9 C         138.3705  142.4727  157.8506 C.ar    1  UNL1        0.1678
     10 C         141.3265  142.9062  161.7228 C.3     1  UNL1        0.0977
     11 C         142.3979  142.3253  160.8485 C.3     1  UNL1        0.0136
     12 C         140.9600  142.2387  160.4305 C.3     1  UNL1        0.0344
     13 C         139.4688  142.3040  160.2817 C.3     1  UNL1        0.1180
     14 C         138.9137  143.0118  161.4820 C.3     1  UNL1        0.1582
     15 O         137.4648  143.2973  161.7454 O.3     1  UNL1       -0.3800
     16 C         140.0618  143.3840  162.3728 C.3     1  UNL1        0.1471
     17 O         139.9626  144.1070  163.6832 O.3     1  UNL1       -0.3814
     18 H         137.3760  143.7658  162.5901 H       1  UNL1        0.2105
     19 H         139.0321  144.3027  163.8749 H       1  UNL1        0.2105
     20 C         143.7733  145.2655  163.7716 C.3     1  UNL1        0.1107
     21 N         142.8492  144.7718  162.6980 N.am    1  UNL1       -0.3026
     22 C         142.2506  143.3999  162.7964 C.2     1  UNL1        0.2240
     23 O         142.5760  142.5218  163.9681 O.2     1  UNL1       -0.2750
     24 H         142.6356  145.3481  161.9289 H       1  UNL1        0.1495
     25 N         136.2748  141.0923  154.7761 N.pl3   1  UNL1       -0.3131
     26 H         136.6660  140.2560  154.4344 H       1  UNL1        0.1485
     27 C         134.8580  141.4508  154.4378 C.3     1  UNL1        0.1154
     28 C         133.7337  140.9601  155.3010 C.ar    1  UNL1       -0.0018
     29 C         132.3365  141.4515  155.0638 C.ar    1  UNL1       -0.0026
     30 C         131.2121  140.9608  155.9269 C.ar    1  UNL1        0.0006
     31 C         131.4850  139.9787  157.0273 C.ar    1  UNL1        0.0114
     32 C         132.8822  139.4872  157.2646 C.ar    1  UNL1        0.0574
     33 CL        133.1551  138.5051  158.3650 Cl      1  UNL1       -0.0823
     34 C         134.0066  139.9779  156.4015 C.ar    1  UNL1        0.0088
     35 C         138.6485  145.6577  155.4992 C.1     1  UNL1       -0.0210
     36 C         139.0147  147.0245  155.0018 C.1     1  UNL1       -0.0567
     37 C         139.3809  148.3915  154.5043 C.ar    1  UNL1        0.0444
     38 C         140.2210  148.5404  153.2706 C.ar    1  UNL1        0.0107
     39 C         140.5872  149.9073  152.7731 C.ar    1  UNL1        0.0326
     40 C         140.1134  151.1253  153.5094 C.ar    1  UNL1        0.1674
     41 F         140.4796  152.4922  153.0119 F       1  UNL1       -0.2018
     42 C         139.2733  150.9764  154.7431 C.ar    1  UNL1        0.1680
     43 F         138.7995  152.1943  155.4794 F       1  UNL1       -0.2018
     44 C         138.9071  149.6094  155.2406 C.ar    1  UNL1        0.0402
@<TRIPOS>BOND
     1    20    21    1
     2    21    22   am
     3    22    23    2
     4    10    22    1
     5    10    11    1
     6    12    11    1
     7    12    13    1
     8    13     1    1
     9     1     2   ar
    10     2     3   ar
    11     3     4   ar
    12     4     5   ar
    13     5    25    1
    14    25    27    1
    15    27    28    1
    16    28    29   ar
    17    29    30   ar
    18    30    31   ar
    19    31    32   ar
    20    32    33    1
    21    32    34   ar
    22     5     6   ar
    23     6     7   ar
    24     7    35    1
    25    35    36    3
    26    36    37    1
    27    37    38   ar
    28    38    39   ar
    29    39    40   ar
    30    40    41    1
    31    40    42   ar
    32    42    43    1
    33    42    44   ar
    34     7     8   ar
    35     8     9   ar
    36    13    14    1
    37    14    15    1
    38    14    16    1
    39    16    17    1
    40    12    10    1
    41     9     1   ar
    42    16    10    1
    43     9     4   ar
    44    34    28   ar
    45    44    37   ar
    46    21    24    1
    47    25    26    1
    48    15    18    1
    49    17    19    1
@<TRIPOS>MOLECULE
*****
 44 49 0 0 0
SMALL
GASTEIGER

@<TRIPOS>ATOM
      1 N         139.6670  143.8722  162.1142 N.ar    1  UNL1       -0.2937
      2 C         139.3620  145.3391  162.1859 C.ar    1  UNL1        0.1798
      3 N         139.5809  145.9252  160.8226 N.ar    1  UNL1       -0.2195
      4 C         140.0212  144.8205  159.9083 C.ar    1  UNL1        0.1483
      5 C         140.3805  144.8061  158.4521 C.ar    1  UNL1        0.1518
      6 N         140.7931  143.5227  157.7941 N.ar    1  UNL1       -0.2031
      7 C         140.8463  142.2539  158.5923 C.ar    1  UNL1        0.2093
      8 N         140.4869  142.2684  160.0486 N.ar    1  UNL1       -0.2003
      9 C         140.0744  143.5517  160.7066 C.ar    1  UNL1        0.1678
     10 C         140.1338  141.5952  165.2226 C.3     1  UNL1        0.0977
     11 C         141.4974  142.1868  165.4232 C.3     1  UNL1        0.0136
     12 C         140.6417  142.6455  164.2798 C.3     1  UNL1        0.0344
     13 C         139.5799  142.8970  163.2506 C.3     1  UNL1        0.1180
     14 C         138.4158  142.0021  163.5572 C.3     1  UNL1        0.1582
     15 O         137.1344  141.9253  162.7813 O.3     1  UNL1       -0.3800
     16 C         138.7581  141.1975  164.7760 C.3     1  UNL1        0.1471
     17 O         137.8791  140.1749  165.4328 O.3     1  UNL1       -0.3814
     18 H         136.5485  141.2684  163.1888 H       1  UNL1        0.2105
     19 H         137.0423  140.1078  164.9469 H       1  UNL1        0.2105
     20 C         139.9437  140.2523  168.9524 C.3     1  UNL1        0.1107
     21 N         139.8865  141.1807  167.7755 N.am    1  UNL1       -0.3026
     22 C         140.1910  140.6668  166.3995 C.2     1  UNL1        0.2240
     23 O         140.5526  139.2247  166.2004 O.2     1  UNL1       -0.2750
     24 H         139.6492  142.1272  167.9061 H       1  UNL1        0.1495
     25 N         140.3273  146.0749  157.6538 N.pl3   1  UNL1       -0.3131
     26 H         140.7626  146.8895  157.9946 H       1  UNL1        0.1485
     27 C         139.6107  146.1026  156.3363 C.3     1  UNL1        0.1154
     28 C         139.6283  147.3470  155.4990 C.ar    1  UNL1       -0.0018
     29 C         140.3103  147.3426  154.1631 C.ar    1  UNL1       -0.0026
     30 C         140.3279  148.5871  153.3258 C.ar    1  UNL1        0.0006
     31 C         139.6633  149.8359  153.8245 C.ar    1  UNL1        0.0114
     32 C         138.9812  149.8404  155.1605 C.ar    1  UNL1        0.0574
     33 CL        138.3167  151.0892  155.6591 Cl      1  UNL1       -0.0823
     34 C         138.9637  148.5959  155.9977 C.ar    1  UNL1        0.0088
     35 C         141.2588  140.9706  157.9344 C.1     1  UNL1       -0.0210
     36 C         141.6714  139.6874  157.2765 C.1     1  UNL1       -0.0567
     37 C         142.0840  138.4040  156.6185 C.ar    1  UNL1        0.0444
     38 C         142.0963  138.2985  155.1222 C.ar    1  UNL1        0.0107
     39 C         142.5089  137.0152  154.4643 C.ar    1  UNL1        0.0326
     40 C         142.9092  135.8374  155.3025 C.ar    1  UNL1        0.1674
     41 F         143.3218  134.5542  154.6445 F       1  UNL1       -0.2018
     42 C         142.8970  135.9430  156.7987 C.ar    1  UNL1        0.1680
     43 F         143.2973  134.7653  157.6370 F       1  UNL1       -0.2018
     44 C         142.4844  137.2263  157.4567 C.ar    1  UNL1        0.0402
@<TRIPOS>BOND
     1    20    21    1
     2    21    22   am
     3    22    23    2
     4    10    22    1
     5    10    11    1
     6    12    11    1
     7    12    13    1
     8    13     1    1
     9     1     2   ar
    10     2     3   ar
    11     3     4   ar
    12     4     5   ar
    13     5    25    1
    14    25    27    1
    15    27    28    1
    16    28    29   ar
    17    29    30   ar
    18    30    31   ar
    19    31    32   ar
    20    32    33    1
    21    32    34   ar
    22     5     6   ar
    23     6     7   ar
    24     7    35    1
    25    35    36    3
    26    36    37    1
    27    37    38   ar
    28    38    39   ar
    29    39    40   ar
    30    40    41    1
    31    40    42   ar
    32    42    43    1
    33    42    44   ar
    34     7     8   ar
    35     8     9   ar
    36    13    14    1
    37    14    15    1
    38    14    16    1
    39    16    17    1
    40    12    10    1
    41     9     1   ar
    42    16    10    1
    43     9     4   ar
    44    34    28   ar
    45    44    37   ar
    46    21    24    1
    47    25    26    1
    48    15    18    1
    49    17    19    1
@<TRIPOS>MOLECULE
*****
 44 49 0 0 0
SMALL
GASTEIGER

@<TRIPOS>ATOM
      1 N         142.9106  140.4040  160.4946 N.ar    1  UNL1       -0.2937
      2 C         143.4424  141.8000  160.3596 C.ar    1  UNL1        0.1798
      3 N         144.0157  141.9463  158.9812 N.ar    1  UNL1       -0.2195
      4 C         143.8381  140.6407  158.2643 C.ar    1  UNL1        0.1483
      5 C         144.2102  140.1967  156.8807 C.ar    1  UNL1        0.1518
      6 N         143.8991  138.7994  156.4323 N.ar    1  UNL1       -0.2031
      7 C         143.2161  137.8462  157.3677 C.ar    1  UNL1        0.2093
      8 N         142.8441  138.2903  158.7513 N.ar    1  UNL1       -0.2003
      9 C         143.1551  139.6875  159.1996 C.ar    1  UNL1        0.1678
     10 C         140.9679  139.6147  163.7608 C.3     1  UNL1        0.0977
     11 C         140.5852  141.0618  163.8561 C.3     1  UNL1        0.0136
     12 C         141.4318  140.5837  162.7140 C.3     1  UNL1        0.0344
     13 C         142.2501  139.8259  161.7110 C.3     1  UNL1        0.1180
     14 C         142.2920  138.3885  162.1378 C.3     1  UNL1        0.1582
     15 O         143.0018  137.2769  161.4233 O.3     1  UNL1       -0.3800
     16 C         141.4995  138.2579  163.4048 C.3     1  UNL1        0.1471
     17 O         141.2777  136.9929  164.1795 O.3     1  UNL1       -0.3814
     18 H         142.8719  136.4465  161.9075 H       1  UNL1        0.2105
     19 H         141.7288  136.2582  163.7350 H       1  UNL1        0.2105
     20 C         138.0905  138.3780  166.1983 C.3     1  UNL1        0.1107
     21 N         138.8030  138.8111  164.9513 N.am    1  UNL1       -0.3026
     22 C         140.2554  139.1815  165.0078 C.2     1  UNL1        0.2240
     23 O         140.9954  139.1188  166.3110 O.2     1  UNL1       -0.2750
     24 H         138.3173  138.8523  164.0960 H       1  UNL1        0.1495
     25 N         144.8932  141.1500  155.9454 N.pl3   1  UNL1       -0.3131
     26 H         144.5339  141.2938  155.0401 H       1  UNL1        0.1485
     27 C         146.1237  141.8841  156.3893 C.3     1  UNL1        0.1154
     28 C         147.1702  142.2692  155.3861 C.ar    1  UNL1       -0.0018
     29 C         146.8371  143.2354  154.2882 C.ar    1  UNL1       -0.0026
     30 C         147.8836  143.6205  153.2849 C.ar    1  UNL1        0.0006
     31 C         149.2632  143.0394  153.3796 C.ar    1  UNL1        0.0114
     32 C         149.5963  142.0731  154.4775 C.ar    1  UNL1        0.0574
     33 CL        150.9759  141.4919  154.5721 Cl      1  UNL1       -0.0823
     34 C         148.5498  141.6880  155.4808 C.ar    1  UNL1        0.0088
     35 C         142.9051  136.4490  156.9194 C.1     1  UNL1       -0.0210
     36 C         142.5941  135.0518  156.4711 C.1     1  UNL1       -0.0567
     37 C         142.2831  133.6545  156.0228 C.ar    1  UNL1        0.0444
     38 C         141.3582  133.4270  154.8640 C.ar    1  UNL1        0.0107
     39 C         141.0472  132.0298  154.4157 C.ar    1  UNL1        0.0326
     40 C         141.6610  130.8599  155.1263 C.ar    1  UNL1        0.1674
     41 F         141.3500  129.4627  154.6780 F       1  UNL1       -0.2018
     42 C         142.5859  131.0874  156.2851 C.ar    1  UNL1        0.1680
     43 F         143.1996  129.9177  156.9957 F       1  UNL1       -0.2018
     44 C         142.8969  132.4848  156.7334 C.ar    1  UNL1        0.0402
@<TRIPOS>BOND
     1    20    21    1
     2    21    22   am
     3    22    23    2
     4    10    22    1
     5    10    11    1
     6    12    11    1
     7    12    13    1
     8    13     1    1
     9     1     2   ar
    10     2     3   ar
    11     3     4   ar
    12     4     5   ar
    13     5    25    1
    14    25    27    1
    15    27    28    1
    16    28    29   ar
    17    29    30   ar
    18    30    31   ar
    19    31    32   ar
    20    32    33    1
    21    32    34   ar
    22     5     6   ar
    23     6     7   ar
    24     7    35    1
    25    35    36    3
    26    36    37    1
    27    37    38   ar
    28    38    39   ar
    29    39    40   ar
    30    40    41    1
    31    40    42   ar
    32    42    43    1
    33    42    44   ar
    34     7     8   ar
    35     8     9   ar
    36    13    14    1
    37    14    15    1
    38    14    16    1
    39    16    17    1
    40    12    10    1
    41     9     1   ar
    42    16    10    1
    43     9     4   ar
    44    34    28   ar
    45    44    37   ar
    46    21    24    1
    47    25    26    1
    48    15    18    1
    49    17    19    1
@<TRIPOS>MOLECULE
*****
 44 49 0 0 0
SMALL
GASTEIGER

@<TRIPOS>ATOM
      1 N         135.7271  142.2017  154.3544 N.ar    1  UNL1       -0.2937
      2 C         135.7146  142.5942  152.9068 C.ar    1  UNL1        0.1798
      3 N         136.8941  143.4870  152.6584 N.ar    1  UNL1       -0.2195
      4 C         137.6356  143.6463  153.9526 C.ar    1  UNL1        0.1483
      5 C         138.8743  144.4120  154.3120 C.ar    1  UNL1        0.1518
      6 N         139.3918  144.3834  155.7196 N.ar    1  UNL1       -0.2031
      7 C         138.6706  143.5890  156.7678 C.ar    1  UNL1        0.2093
      8 N         137.4318  142.8232  156.4084 N.ar    1  UNL1       -0.2003
      9 C         136.9143  142.8519  155.0008 C.ar    1  UNL1        0.1678
     10 C         132.6527  140.4570  155.9573 C.3     1  UNL1        0.0977
     11 C         131.8090  141.6337  155.5654 C.3     1  UNL1        0.0136
     12 C         133.2709  141.6140  155.2299 C.3     1  UNL1        0.0344
     13 C         134.7279  141.3146  155.0361 C.3     1  UNL1        0.1180
     14 C         135.0102  139.9726  155.6437 C.3     1  UNL1        0.1582
     15 O         136.3413  139.2818  155.6762 O.3     1  UNL1       -0.3800
     16 C         133.7276  139.4424  156.2130 C.3     1  UNL1        0.1471
     17 O         133.5510  138.1286  156.9147 O.3     1  UNL1       -0.3814
     18 H         136.2513  138.4275  156.1266 H       1  UNL1        0.2105
     19 H         134.4012  137.6629  156.9478 H       1  UNL1        0.2105
     20 C         129.6608  137.8993  156.4649 C.3     1  UNL1        0.1107
     21 N         130.7670  138.6755  155.8137 N.am    1  UNL1       -0.3026
     22 C         131.5465  139.6808  156.6085 C.2     1  UNL1        0.2240
     23 O         131.2199  139.9100  158.0545 O.2     1  UNL1       -0.2750
     24 H         130.9814  138.5250  154.8647 H       1  UNL1        0.1495
     25 N         139.5955  145.2064  153.2638 N.pl3   1  UNL1       -0.3131
     26 H         139.3972  145.0586  152.3108 H       1  UNL1        0.1485
     27 C         140.6190  146.2260  153.6675 C.3     1  UNL1        0.1154
     28 C         140.2303  147.6693  153.7943 C.ar    1  UNL1       -0.0018
     29 C         140.6174  148.6470  152.7247 C.ar    1  UNL1       -0.0026
     30 C         140.2288  150.0902  152.8515 C.ar    1  UNL1        0.0006
     31 C         139.4530  150.5557  154.0479 C.ar    1  UNL1        0.0114
     32 C         139.0659  149.5779  155.1176 C.ar    1  UNL1        0.0574
     33 CL        138.2901  150.0434  156.3141 Cl      1  UNL1       -0.0823
     34 C         139.4545  148.1347  154.9908 C.ar    1  UNL1        0.0088
     35 C         139.1880  143.5603  158.1754 C.1     1  UNL1       -0.0210
     36 C         139.7055  143.5317  159.5830 C.1     1  UNL1       -0.0567
     37 C         140.2230  143.5031  160.9907 C.ar    1  UNL1        0.0444
     38 C         141.4054  142.6478  161.3378 C.ar    1  UNL1        0.0107
     39 C         141.9229  142.6192  162.7454 C.ar    1  UNL1        0.0326
     40 C         141.2580  143.4458  163.8060 C.ar    1  UNL1        0.1674
     41 F         141.7755  143.4172  165.2135 F       1  UNL1       -0.2018
     42 C         140.0756  144.3010  163.4588 C.ar    1  UNL1        0.1680
     43 F         139.4106  145.1276  164.5193 F       1  UNL1       -0.2018
     44 C         139.5581  144.3296  162.0511 C.ar    1  UNL1        0.0402
@<TRIPOS>BOND
     1    20    21    1
     2    21    22   am
     3    22    23    2
     4    10    22    1
     5    10    11    1
     6    12    11    1
     7    12    13    1
     8    13     1    1
     9     1     2   ar
    10     2     3   ar
    11     3     4   ar
    12     4     5   ar
    13     5    25    1
    14    25    27    1
    15    27    28    1
    16    28    29   ar
    17    29    30   ar
    18    30    31   ar
    19    31    32   ar
    20    32    33    1
    21    32    34   ar
    22     5     6   ar
    23     6     7   ar
    24     7    35    1
    25    35    36    3
    26    36    37    1
    27    37    38   ar
    28    38    39   ar
    29    39    40   ar
    30    40    41    1
    31    40    42   ar
    32    42    43    1
    33    42    44   ar
    34     7     8   ar
    35     8     9   ar
    36    13    14    1
    37    14    15    1
    38    14    16    1
    39    16    17    1
    40    12    10    1
    41     9     1   ar
    42    16    10    1
    43     9     4   ar
    44    34    28   ar
    45    44    37   ar
    46    21    24    1
    47    25    26    1
    48    15    18    1
    49    17    19    1
@<TRIPOS>MOLECULE
*****
 44 49 0 0 0
SMALL
GASTEIGER

@<TRIPOS>ATOM
      1 N         140.7866  143.5512  160.9394 N.ar    1  UNL1       -0.2937
      2 C         141.0130  145.0290  160.8171 C.ar    1  UNL1        0.1798
      3 N         141.6721  145.2890  159.4950 N.ar    1  UNL1       -0.2195
      4 C         141.8530  143.9720  158.8002 C.ar    1  UNL1        0.1483
      5 C         142.4453  143.6120  157.4700 C.ar    1  UNL1        0.1518
      6 N         142.4904  142.1779  157.0325 N.ar    1  UNL1       -0.2031
      7 C         141.9431  141.1038  157.9252 C.ar    1  UNL1        0.2093
      8 N         141.3508  141.4639  159.2554 N.ar    1  UNL1       -0.2003
      9 C         141.3057  142.8980  159.6929 C.ar    1  UNL1        0.1678
     10 C         139.8211  141.4118  164.0307 C.3     1  UNL1        0.0977
     11 C         141.2142  140.8560  164.0528 C.3     1  UNL1        0.0136
     12 C         140.8227  141.8572  163.0068 C.3     1  UNL1        0.0344
     13 C         140.1524  142.8498  162.1038 C.3     1  UNL1        0.1180
     14 C         138.7365  143.0179  162.5697 C.3     1  UNL1        0.1582
     15 O         137.7062  143.9169  161.9529 O.3     1  UNL1       -0.3800
     16 C         138.5317  142.1291  163.7606 C.3     1  UNL1        0.1471
     17 O         137.2609  141.9833  164.5438 O.3     1  UNL1       -0.3814
     18 H         136.8735  143.8391  162.4443 H       1  UNL1        0.2105
     19 H         136.5782  142.5571  164.1621 H       1  UNL1        0.2105
     20 C         138.1373  138.5505  166.2051 C.3     1  UNL1        0.1107
     21 N         138.6333  139.3231  165.0188 N.am    1  UNL1       -0.3026
     22 C         139.3251  140.6392  165.2170 C.2     1  UNL1        0.2240
     23 O         139.5210  141.1827  166.6012 O.2     1  UNL1       -0.2750
     24 H         138.5048  138.9664  164.1103 H       1  UNL1        0.1495
     25 N         142.9926  144.6860  156.5773 N.pl3   1  UNL1       -0.3131
     26 H         143.7763  145.2100  156.8610 H       1  UNL1        0.1485
     27 C         142.3458  144.9617  155.2522 C.3     1  UNL1        0.1154
     28 C         140.8672  145.2019  155.1749 C.ar    1  UNL1       -0.0018
     29 C         140.2881  146.4861  155.6902 C.ar    1  UNL1       -0.0026
     30 C         138.8095  146.7263  155.6129 C.ar    1  UNL1        0.0006
     31 C         137.9100  145.6825  155.0203 C.ar    1  UNL1        0.0114
     32 C         138.4891  144.3983  154.5050 C.ar    1  UNL1        0.0574
     33 CL        137.5896  143.3544  153.9124 Cl      1  UNL1       -0.0823
     34 C         139.9677  144.1580  154.5823 C.ar    1  UNL1        0.0088
     35 C         141.9882  139.6698  157.4877 C.1     1  UNL1       -0.0210
     36 C         142.0333  138.2358  157.0502 C.1     1  UNL1       -0.0567
     37 C         142.0784  136.8016  156.6127 C.ar    1  UNL1        0.0444
     38 C         141.1039  136.2988  155.5892 C.ar    1  UNL1        0.0107
     39 C         141.1490  134.8647  155.1517 C.ar    1  UNL1        0.0326
     40 C         142.1686  133.9335  155.7377 C.ar    1  UNL1        0.1674
     41 F         142.2136  132.4994  155.3002 F       1  UNL1       -0.2018
     42 C         143.1430  134.4363  156.7612 C.ar    1  UNL1        0.1680
     43 F         144.1625  133.5052  157.3472 F       1  UNL1       -0.2018
     44 C         143.0979  135.8705  157.1987 C.ar    1  UNL1        0.0402
@<TRIPOS>BOND
     1    20    21    1
     2    21    22   am
     3    22    23    2
     4    10    22    1
     5    10    11    1
     6    12    11    1
     7    12    13    1
     8    13     1    1
     9     1     2   ar
    10     2     3   ar
    11     3     4   ar
    12     4     5   ar
    13     5    25    1
    14    25    27    1
    15    27    28    1
    16    28    29   ar
    17    29    30   ar
    18    30    31   ar
    19    31    32   ar
    20    32    33    1
    21    32    34   ar
    22     5     6   ar
    23     6     7   ar
    24     7    35    1
    25    35    36    3
    26    36    37    1
    27    37    38   ar
    28    38    39   ar
    29    39    40   ar
    30    40    41    1
    31    40    42   ar
    32    42    43    1
    33    42    44   ar
    34     7     8   ar
    35     8     9   ar
    36    13    14    1
    37    14    15    1
    38    14    16    1
    39    16    17    1
    40    12    10    1
    41     9     1   ar
    42    16    10    1
    43     9     4   ar
    44    34    28   ar
    45    44    37   ar
    46    21    24    1
    47    25    26    1
    48    15    18    1
    49    17    19    1
@<TRIPOS>MOLECULE
*****
 44 49 0 0 0
SMALL
GASTEIGER

@<TRIPOS>ATOM
      1 N         139.6105  141.1544  154.4666 N.ar    1  UNL1       -0.2937
      2 C         139.8965  140.4658  153.1651 C.ar    1  UNL1        0.1798
      3 N         140.0688  139.0020  153.4433 N.ar    1  UNL1       -0.2195
      4 C         139.8892  138.7858  154.9168 C.ar    1  UNL1        0.1483
      5 C         139.9470  137.5496  155.7642 C.ar    1  UNL1        0.1518
      6 N         139.7215  137.6436  157.2443 N.ar    1  UNL1       -0.2031
      7 C         139.4382  138.9739  157.8767 C.ar    1  UNL1        0.2093
      8 N         139.3804  140.2102  157.0292 N.ar    1  UNL1       -0.2003
      9 C         139.6059  140.1161  155.5492 C.ar    1  UNL1        0.1678
     10 C         139.7243  144.9787  155.1200 C.3     1  UNL1        0.0977
     11 C         141.1861  144.8587  155.4341 C.3     1  UNL1        0.0136
     12 C         140.3981  143.6402  155.0543 C.3     1  UNL1        0.0344
     13 C         139.3710  142.6234  154.6529 C.3     1  UNL1        0.1180
     14 C         138.0623  143.3335  154.4706 C.3     1  UNL1        0.1582
     15 O         136.7634  142.6993  154.0699 O.3     1  UNL1       -0.3800
     16 C         138.2807  144.7892  154.7593 C.3     1  UNL1        0.1471
     17 O         137.2385  145.8662  154.6979 O.3     1  UNL1       -0.3814
     18 H         136.0726  143.3786  154.0236 H       1  UNL1        0.2105
     19 H         136.3876  145.4784  154.4400 H       1  UNL1        0.2105
     20 C         139.6728  148.8821  154.4049 C.3     1  UNL1        0.1107
     21 N         139.7601  147.4013  154.1819 N.am    1  UNL1       -0.3026
     22 C         139.6370  146.4596  155.3430 C.2     1  UNL1        0.2240
     23 O         139.4267  146.9985  156.7269 O.2     1  UNL1       -0.2750
     24 H         139.8982  147.0475  153.2736 H       1  UNL1        0.1495
     25 N         140.2302  136.2192  155.1318 N.pl3   1  UNL1       -0.3131
     26 H         139.4863  135.6484  154.8318 H       1  UNL1        0.1485
     27 C         141.6470  135.7586  154.9564 C.3     1  UNL1        0.1154
     28 C         142.0887  134.4511  155.5440 C.ar    1  UNL1       -0.0018
     29 C         141.4075  133.1780  155.1376 C.ar    1  UNL1       -0.0026
     30 C         141.8492  131.8704  155.7251 C.ar    1  UNL1        0.0006
     31 C         142.9720  131.8360  156.7191 C.ar    1  UNL1        0.0114
     32 C         143.6532  133.1091  157.1256 C.ar    1  UNL1        0.0574
     33 CL        144.7761  133.0746  158.1195 Cl      1  UNL1       -0.0823
     34 C         143.2116  134.4167  156.5380 C.ar    1  UNL1        0.0088
     35 C         139.2127  139.0679  159.3567 C.1     1  UNL1       -0.0210
     36 C         138.9873  139.1620  160.8366 C.1     1  UNL1       -0.0567
     37 C         138.7618  139.2561  162.3166 C.ar    1  UNL1        0.0444
     38 C         138.3450  140.5598  162.9303 C.ar    1  UNL1        0.0107
     39 C         138.1195  140.6540  164.4103 C.ar    1  UNL1        0.0326
     40 C         138.3108  139.4444  165.2766 C.ar    1  UNL1        0.1674
     41 F         138.0853  139.5385  166.7565 F       1  UNL1       -0.2018
     42 C         138.7276  138.1407  164.6628 C.ar    1  UNL1        0.1680
     43 F         138.9189  136.9311  165.5290 F       1  UNL1       -0.2018
     44 C         138.9531  138.0466  163.1828 C.ar    1  UNL1        0.0402
@<TRIPOS>BOND
     1    20    21    1
     2    21    22   am
     3    22    23    2
     4    10    22    1
     5    10    11    1
     6    12    11    1
     7    12    13    1
     8    13     1    1
     9     1     2   ar
    10     2     3   ar
    11     3     4   ar
    12     4     5   ar
    13     5    25    1
    14    25    27    1
    15    27    28    1
    16    28    29   ar
    17    29    30   ar
    18    30    31   ar
    19    31    32   ar
    20    32    33    1
    21    32    34   ar
    22     5     6   ar
    23     6     7   ar
    24     7    35    1
    25    35    36    3
    26    36    37    1
    27    37    38   ar
    28    38    39   ar
    29    39    40   ar
    30    40    41    1
    31    40    42   ar
    32    42    43    1
    33    42    44   ar
    34     7     8   ar
    35     8     9   ar
    36    13    14    1
    37    14    15    1
    38    14    16    1
    39    16    17    1
    40    12    10    1
    41     9     1   ar
    42    16    10    1
    43     9     4   ar
    44    34    28   ar
    45    44    37   ar
    46    21    24    1
    47    25    26    1
    48    15    18    1
    49    17    19    1
@<TRIPOS>MOLECULE
*****
 44 49 0 0 0
SMALL
GASTEIGER

@<TRIPOS>ATOM
      1 N         139.5285  139.5748  155.2035 N.ar    1  UNL1       -0.2937
      2 C         140.4095  139.2503  154.0337 C.ar    1  UNL1        0.1798
      3 N         141.6697  138.6301  154.5605 N.ar    1  UNL1       -0.2195
      4 C         141.5675  138.5714  156.0558 C.ar    1  UNL1        0.1483
      5 C         142.5084  138.0617  157.1069 C.ar    1  UNL1        0.1518
      6 N         142.1260  138.1359  158.5555 N.ar    1  UNL1       -0.2031
      7 C         140.8027  138.7197  158.9530 C.ar    1  UNL1        0.2093
      8 N         139.8618  139.2294  157.9018 N.ar    1  UNL1       -0.2003
      9 C         140.2442  139.1552  156.4533 C.ar    1  UNL1        0.1678
     10 C         135.7933  140.5384  154.7737 C.3     1  UNL1        0.0977
     11 C         135.5143  139.1481  154.2846 C.3     1  UNL1        0.0136
     12 C         136.9077  139.5387  154.6794 C.3     1  UNL1        0.0344
     13 C         138.1703  140.2078  155.1356 C.3     1  UNL1        0.1180
     14 C         137.8364  141.6209  155.5118 C.3     1  UNL1        0.1582
     15 O         138.8019  142.6491  156.0221 O.3     1  UNL1       -0.3800
     16 C         136.3672  141.8252  155.2882 C.3     1  UNL1        0.1471
     17 O         135.6058  143.0936  155.5356 O.3     1  UNL1       -0.3814
     18 H         138.3306  143.4802  156.1896 H       1  UNL1        0.2105
     19 H         136.2115  143.7749  155.8671 H       1  UNL1        0.2105
     20 C         132.0668  141.5153  155.7273 C.3     1  UNL1        0.1107
     21 N         133.4776  141.0203  155.8486 N.am    1  UNL1       -0.3026
     22 C         134.3825  141.0334  154.6524 C.2     1  UNL1        0.2240
     23 O         133.8767  141.5415  153.3348 O.2     1  UNL1       -0.2750
     24 H         133.8096  140.6868  156.7134 H       1  UNL1        0.1495
     25 N         143.8317  137.4778  156.7095 N.pl3   1  UNL1       -0.3131
     26 H         144.6432  137.7060  157.2182 H       1  UNL1        0.1485
     27 C         143.9187  136.5463  155.5370 C.3     1  UNL1        0.1154
     28 C         143.3476  135.1627  155.6344 C.ar    1  UNL1       -0.0018
     29 C         143.6036  134.3299  156.8554 C.ar    1  UNL1       -0.0026
     30 C         143.0325  132.9463  156.9529 C.ar    1  UNL1        0.0006
     31 C         142.2054  132.3955  155.8293 C.ar    1  UNL1        0.0114
     32 C         141.9493  133.2283  154.6082 C.ar    1  UNL1        0.0574
     33 CL        141.1222  132.6775  153.4847 Cl      1  UNL1       -0.0823
     34 C         142.5204  134.6119  154.5108 C.ar    1  UNL1        0.0088
     35 C         140.4204  138.7939  160.4015 C.1     1  UNL1       -0.0210
     36 C         140.0380  138.8681  161.8500 C.1     1  UNL1       -0.0567
     37 C         139.6556  138.9422  163.2986 C.ar    1  UNL1        0.0444
     38 C         139.9000  140.2021  164.0752 C.ar    1  UNL1        0.0107
     39 C         139.5177  140.2763  165.5237 C.ar    1  UNL1        0.0326
     40 C         138.8910  139.0907  166.1957 C.ar    1  UNL1        0.1674
     41 F         138.5086  139.1649  167.6443 F       1  UNL1       -0.2018
     42 C         138.6466  137.8308  165.4191 C.ar    1  UNL1        0.1680
     43 F         138.0198  136.6452  166.0911 F       1  UNL1       -0.2018
     44 C         139.0289  137.7566  163.9705 C.ar    1  UNL1        0.0402
@<TRIPOS>BOND
     1    20    21    1
     2    21    22   am
     3    22    23    2
     4    10    22    1
     5    10    11    1
     6    12    11    1
     7    12    13    1
     8    13     1    1
     9     1     2   ar
    10     2     3   ar
    11     3     4   ar
    12     4     5   ar
    13     5    25    1
    14    25    27    1
    15    27    28    1
    16    28    29   ar
    17    29    30   ar
    18    30    31   ar
    19    31    32   ar
    20    32    33    1
    21    32    34   ar
    22     5     6   ar
    23     6     7   ar
    24     7    35    1
    25    35    36    3
    26    36    37    1
    27    37    38   ar
    28    38    39   ar
    29    39    40   ar
    30    40    41    1
    31    40    42   ar
    32    42    43    1
    33    42    44   ar
    34     7     8   ar
    35     8     9   ar
    36    13    14    1
    37    14    15    1
    38    14    16    1
    39    16    17    1
    40    12    10    1
    41     9     1   ar
    42    16    10    1
    43     9     4   ar
    44    34    28   ar
    45    44    37   ar
    46    21    24    1
    47    25    26    1
    48    15    18    1
    49    17    19    1
