@<TRIPOS>MOLECULE
*****
 41 44 0 0 0
SMALL
GASTEIGER

@<TRIPOS>ATOM
      1 C         140.7496  140.6109  163.1862 C.3     1  UNL1        0.0799
      2 C         140.4416  140.5429  164.6527 C.ar    1  UNL1        0.0374
      3 C         140.6662  141.7440  165.5228 C.ar    1  UNL1        0.0023
      4 C         140.3582  141.6759  166.9892 C.ar    1  UNL1        0.0181
      5 C         140.5829  142.8770  167.8593 C.ar    1  UNL1        0.0082
      6 C         140.2749  142.8090  169.3258 C.ar    1  UNL1        0.0347
      7 BR        140.4995  144.0100  170.1958 Br      1  UNL1       -0.0490
      8 C         139.7423  141.5399  169.9222 C.ar    1  UNL1        0.0082
      9 C         139.5177  140.3388  169.0521 C.ar    1  UNL1        0.0197
     10 C         139.8256  140.4068  167.5857 C.ar    1  UNL1        0.0844
     11 N         139.6010  139.2057  166.7156 N.ar    1  UNL1       -0.2119
     12 C         139.9090  139.2738  165.2491 C.ar    1  UNL1        0.2211
     13 O         139.6844  138.0727  164.3791 O.3     1  UNL1       -0.4563
     14 C         140.6872  136.9572  164.3671 C.3     1  UNL1        0.2542
     15 C         141.8908  139.8178  162.6220 C.ar    1  UNL1        0.0148
     16 C         143.2251  139.8321  163.3070 C.ar    1  UNL1       -0.0014
     17 C         144.3665  139.0390  162.7427 C.ar    1  UNL1        0.0029
     18 C         144.1734  138.2316  161.4934 C.ar    1  UNL1        0.0392
     19 C         142.8390  138.2173  160.8083 C.ar    1  UNL1        0.1657
     20 C         141.6978  139.0104  161.3726 C.ar    1  UNL1        0.1702
     21 F         140.3635  138.9961  160.6876 F       1  UNL1       -0.2013
     22 O         142.6460  137.4099  159.5590 O.3     1  UNL1       -0.4692
     23 C         142.5960  138.0933  158.2246 C.3     1  UNL1        0.2526
     24 C         139.9163  141.4721  162.2841 C.3     1  UNL1        0.1161
     25 O         138.7277  140.5950  162.5446 O.3     1  UNL1       -0.3820
     26 H         137.9634  140.9310  162.0507 H       1  UNL1        0.2107
     27 C         142.8008  143.4057  160.3629 C.ar    1  UNL1        0.2252
     28 C         141.6122  142.5285  160.6234 C.ar    1  UNL1        0.0557
     29 C         141.1048  142.3493  162.0235 C.ar    1  UNL1        0.0090
     30 C         141.7860  143.0473  163.1632 C.ar    1  UNL1        0.0237
     31 C         142.9746  143.9245  162.9026 C.ar    1  UNL1        0.1096
     32 N         143.4820  144.1037  161.5025 N.ar    1  UNL1       -0.2054
     33 C         144.3219  142.6306  158.4044 C.3     1  UNL1        0.2542
     34 O         143.3081  143.5849  158.9627 O.3     1  UNL1       -0.4561
     35 S         143.6558  144.6224  164.0424 S.3     1  UNL1       -0.0939
     36 C         144.3778  143.8239  165.0869 C.3     1  UNL1        0.0757
     37 C         139.0829  142.3333  161.3819 C.3     1  UNL1        0.0491
     38 C         137.9919  143.1868  161.9574 C.3     1  UNL1        0.0750
     39 N         138.3193  144.2332  162.9810 N.3     1  UNL1       -0.2702
     40 C         137.8684  144.0602  164.4011 C.3     1  UNL1        0.0897
     41 C         139.0976  145.4526  162.5846 C.3     1  UNL1        0.0897
@<TRIPOS>BOND
     1    33    34    1
     2    34    27    1
     3    27    28   ar
     4    28    29   ar
     5    29    24    1
     6    24    25    1
     7    24    37    1
     8    37    38    1
     9    38    39    1
    10    39    40    1
    11    39    41    1
    12    24     1    1
    13     1     2    1
    14     2     3   ar
    15     3     4   ar
    16     4     5   ar
    17     5     6   ar
    18     6     7    1
    19     6     8   ar
    20     8     9   ar
    21     9    10   ar
    22    10    11   ar
    23    11    12   ar
    24    12    13    1
    25    13    14    1
    26     1    15    1
    27    15    16   ar
    28    16    17   ar
    29    17    18   ar
    30    18    19   ar
    31    19    22    1
    32    22    23    1
    33    19    20   ar
    34    20    21    1
    35    29    30   ar
    36    30    31   ar
    37    31    35    1
    38    35    36    1
    39    31    32   ar
    40    32    27   ar
    41    12     2   ar
    42    20    15   ar
    43    10     4   ar
    44    25    26    1
@<TRIPOS>MOLECULE
*****
 41 44 0 0 0
SMALL
GASTEIGER

@<TRIPOS>ATOM
      1 C         140.7239  140.5552  163.1914 C.3     1  UNL1        0.0799
      2 C         140.4192  140.4999  164.6591 C.ar    1  UNL1        0.0374
      3 C         140.6401  141.7103  165.5171 C.ar    1  UNL1        0.0023
      4 C         140.3354  141.6551  166.9848 C.ar    1  UNL1        0.0181
      5 C         140.5562  142.8655  167.8427 C.ar    1  UNL1        0.0082
      6 C         140.2515  142.8102  169.3105 C.ar    1  UNL1        0.0347
      7 BR        140.4724  144.0206  170.1684 Br      1  UNL1       -0.0490
      8 C         139.7259  141.5445  169.9201 C.ar    1  UNL1        0.0082
      9 C         139.5050  140.3341  169.0622 C.ar    1  UNL1        0.0197
     10 C         139.8098  140.3893  167.5945 C.ar    1  UNL1        0.0844
     11 N         139.5889  139.1789  166.7366 N.ar    1  UNL1       -0.2119
     12 C         139.8936  139.2342  165.2688 C.ar    1  UNL1        0.2211
     13 O         139.6727  138.0238  164.4109 O.3     1  UNL1       -0.4563
     14 C         140.6923  136.9237  164.3892 C.3     1  UNL1        0.2542
     15 C         141.8796  139.7772  162.6355 C.ar    1  UNL1        0.0148
     16 C         143.2223  139.8508  163.3002 C.ar    1  UNL1       -0.0014
     17 C         144.3780  139.0728  162.7443 C.ar    1  UNL1        0.0029
     18 C         144.1911  138.2211  161.5238 C.ar    1  UNL1        0.0392
     19 C         142.8483  138.1475  160.8591 C.ar    1  UNL1        0.1657
     20 C         141.6926  138.9256  161.4150 C.ar    1  UNL1        0.1702
     21 F         140.3500  138.8519  160.7503 F       1  UNL1       -0.2013
     22 O         142.6613  137.2959  159.6385 O.3     1  UNL1       -0.4692
     23 C         142.6250  137.9303  158.2797 C.3     1  UNL1        0.2526
     24 C         139.8730  141.3886  162.2796 C.3     1  UNL1        0.1161
     25 O         138.6827  140.5394  162.6144 O.3     1  UNL1       -0.3820
     26 H         137.9073  140.8645  162.1307 H       1  UNL1        0.2107
     27 C         142.9103  143.9118  162.6769 C.ar    1  UNL1        0.2252
     28 C         141.7200  143.0626  163.0117 C.ar    1  UNL1        0.0557
     29 C         141.0633  142.2378  161.9449 C.ar    1  UNL1        0.0090
     30 C         141.5968  142.2621  160.5432 C.ar    1  UNL1        0.0237
     31 C         142.7871  143.1113  160.2084 C.ar    1  UNL1        0.1096
     32 N         143.4439  143.9361  161.2753 N.ar    1  UNL1       -0.2054
     33 C         144.2912  144.0644  164.8724 C.3     1  UNL1        0.2542
     34 O         143.5670  144.7367  163.7439 O.3     1  UNL1       -0.4561
     35 S         143.3207  143.1355  158.8067 S.3     1  UNL1       -0.0939
     36 C         144.4384  142.2156  158.4136 C.3     1  UNL1        0.0757
     37 C         139.0220  142.2220  161.3679 C.3     1  UNL1        0.0491
     38 C         137.9304  143.0794  161.9365 C.3     1  UNL1        0.0750
     39 N         138.2577  144.1368  162.9488 N.3     1  UNL1       -0.2702
     40 C         137.8456  143.9581  164.3799 C.3     1  UNL1        0.0897
     41 C         138.9970  145.3729  162.5299 C.3     1  UNL1        0.0897
@<TRIPOS>BOND
     1    33    34    1
     2    34    27    1
     3    27    28   ar
     4    28    29   ar
     5    29    24    1
     6    24    25    1
     7    24    37    1
     8    37    38    1
     9    38    39    1
    10    39    40    1
    11    39    41    1
    12    24     1    1
    13     1     2    1
    14     2     3   ar
    15     3     4   ar
    16     4     5   ar
    17     5     6   ar
    18     6     7    1
    19     6     8   ar
    20     8     9   ar
    21     9    10   ar
    22    10    11   ar
    23    11    12   ar
    24    12    13    1
    25    13    14    1
    26     1    15    1
    27    15    16   ar
    28    16    17   ar
    29    17    18   ar
    30    18    19   ar
    31    19    22    1
    32    22    23    1
    33    19    20   ar
    34    20    21    1
    35    29    30   ar
    36    30    31   ar
    37    31    35    1
    38    35    36    1
    39    31    32   ar
    40    32    27   ar
    41    12     2   ar
    42    20    15   ar
    43    10     4   ar
    44    25    26    1
@<TRIPOS>MOLECULE
*****
 41 44 0 0 0
SMALL
GASTEIGER

@<TRIPOS>ATOM
      1 C         141.3985  141.8340  164.4510 C.3     1  UNL1        0.0799
      2 C         142.2420  142.0463  163.2289 C.ar    1  UNL1        0.0374
      3 C         142.0209  141.2019  162.0090 C.ar    1  UNL1        0.0023
      4 C         142.8644  141.4142  160.7869 C.ar    1  UNL1        0.0181
      5 C         142.6433  140.5697  159.5671 C.ar    1  UNL1        0.0082
      6 C         143.4869  140.7821  158.3450 C.ar    1  UNL1        0.0347
      7 BR        143.2658  139.9376  157.1251 Br      1  UNL1       -0.0490
      8 C         144.5514  141.8388  158.3428 C.ar    1  UNL1        0.0082
      9 C         144.7725  142.6832  159.5626 C.ar    1  UNL1        0.0197
     10 C         143.9290  142.4709  160.7847 C.ar    1  UNL1        0.0844
     11 N         144.1501  143.3154  162.0046 N.ar    1  UNL1       -0.2119
     12 C         143.3065  143.1030  163.2267 C.ar    1  UNL1        0.2211
     13 O         143.5276  143.9475  164.4465 O.3     1  UNL1       -0.4563
     14 C         144.6592  143.6346  165.3803 C.3     1  UNL1        0.2542
     15 C         141.9346  141.0370  165.6031 C.ar    1  UNL1        0.0148
     16 C         142.4103  139.6312  165.3856 C.ar    1  UNL1       -0.0014
     17 C         142.9465  138.8341  166.5377 C.ar    1  UNL1        0.0029
     18 C         143.0067  139.4429  167.9073 C.ar    1  UNL1        0.0392
     19 C         142.5309  140.8488  168.1247 C.ar    1  UNL1        0.1657
     20 C         141.9948  141.6458  166.9726 C.ar    1  UNL1        0.1702
     21 F         141.5190  143.0516  167.1901 F       1  UNL1       -0.2013
     22 O         142.5912  141.4576  169.4943 O.3     1  UNL1       -0.4692
     23 C         143.7813  142.2759  169.8996 C.3     1  UNL1        0.2526
     24 C         140.0189  142.4187  164.5209 C.3     1  UNL1        0.1161
     25 O         140.5951  143.7958  164.3742 O.3     1  UNL1       -0.3820
     26 H         139.8782  144.4491  164.3852 H       1  UNL1        0.2107
     27 C         138.3831  139.1923  166.1533 C.ar    1  UNL1        0.2252
     28 C         138.9593  140.5694  166.0067 C.ar    1  UNL1        0.0557
     29 C         139.4427  141.0415  164.6675 C.ar    1  UNL1        0.0090
     30 C         139.3498  140.1365  163.4749 C.ar    1  UNL1        0.0237
     31 C         138.7736  138.7594  163.6216 C.ar    1  UNL1        0.1096
     32 N         138.2903  138.2873  164.9607 N.ar    1  UNL1       -0.2054
     33 C         136.9012  137.6043  167.5788 C.3     1  UNL1        0.2542
     34 O         137.8997  138.7202  167.4926 O.3     1  UNL1       -0.4561
     35 S         138.6808  137.8543  162.4289 S.3     1  UNL1       -0.0939
     36 C         139.2608  138.2844  161.1141 C.3     1  UNL1        0.0757
     37 C         138.6393  143.0033  164.5908 C.3     1  UNL1        0.0491
     38 C         138.1810  143.9716  163.5409 C.3     1  UNL1        0.0750
     39 N         138.6214  143.7985  162.1174 N.3     1  UNL1       -0.2702
     40 C         138.0876  142.6594  161.3005 C.3     1  UNL1        0.0897
     41 C         139.5956  144.7645  161.5110 C.3     1  UNL1        0.0897
@<TRIPOS>BOND
     1    33    34    1
     2    34    27    1
     3    27    28   ar
     4    28    29   ar
     5    29    24    1
     6    24    25    1
     7    24    37    1
     8    37    38    1
     9    38    39    1
    10    39    40    1
    11    39    41    1
    12    24     1    1
    13     1     2    1
    14     2     3   ar
    15     3     4   ar
    16     4     5   ar
    17     5     6   ar
    18     6     7    1
    19     6     8   ar
    20     8     9   ar
    21     9    10   ar
    22    10    11   ar
    23    11    12   ar
    24    12    13    1
    25    13    14    1
    26     1    15    1
    27    15    16   ar
    28    16    17   ar
    29    17    18   ar
    30    18    19   ar
    31    19    22    1
    32    22    23    1
    33    19    20   ar
    34    20    21    1
    35    29    30   ar
    36    30    31   ar
    37    31    35    1
    38    35    36    1
    39    31    32   ar
    40    32    27   ar
    41    12     2   ar
    42    20    15   ar
    43    10     4   ar
    44    25    26    1
@<TRIPOS>MOLECULE
*****
 41 44 0 0 0
SMALL
GASTEIGER

@<TRIPOS>ATOM
      1 C         142.2674  141.0480  163.2931 C.3     1  UNL1        0.0799
      2 C         142.4778  141.3985  164.7363 C.ar    1  UNL1        0.0374
      3 C         141.6580  140.7276  165.7983 C.ar    1  UNL1        0.0023
      4 C         141.8684  141.0781  167.2415 C.ar    1  UNL1        0.0181
      5 C         141.0486  140.4071  168.3034 C.ar    1  UNL1        0.0082
      6 C         141.2590  140.7577  169.7467 C.ar    1  UNL1        0.0347
      7 BR        140.4392  140.0867  170.8086 Br      1  UNL1       -0.0490
      8 C         142.2891  141.7791  170.1279 C.ar    1  UNL1        0.0082
      9 C         143.1089  142.4501  169.0660 C.ar    1  UNL1        0.0197
     10 C         142.8986  142.0996  167.6228 C.ar    1  UNL1        0.0844
     11 N         143.7184  142.7705  166.5608 N.ar    1  UNL1       -0.2119
     12 C         143.5080  142.4200  165.1176 C.ar    1  UNL1        0.2211
     13 O         144.3278  143.0909  164.0556 O.3     1  UNL1       -0.4563
     14 C         144.0515  144.5178  163.6844 C.3     1  UNL1        0.2542
     15 C         141.5829  142.0191  162.3775 C.ar    1  UNL1        0.0148
     16 C         142.3306  142.6148  161.2217 C.ar    1  UNL1       -0.0014
     17 C         141.6461  143.5860  160.3060 C.ar    1  UNL1        0.0029
     18 C         140.2139  143.9614  160.5462 C.ar    1  UNL1        0.0392
     19 C         139.4661  143.3656  161.7021 C.ar    1  UNL1        0.1657
     20 C         140.1506  142.3945  162.6177 C.ar    1  UNL1        0.1702
     21 F         139.4029  141.7988  163.7735 F       1  UNL1       -0.2013
     22 O         138.0339  143.7410  161.9424 O.3     1  UNL1       -0.4692
     23 C         137.6376  144.4024  163.2291 C.3     1  UNL1        0.2526
     24 C         142.7416  139.7263  162.7655 C.3     1  UNL1        0.1161
     25 O         144.1600  140.2103  162.8277 O.3     1  UNL1       -0.3820
     26 H         144.7548  139.5088  162.5195 H       1  UNL1        0.2107
     27 C         139.2880  138.0882  163.8327 C.ar    1  UNL1        0.2252
     28 C         140.7064  138.5722  163.8950 C.ar    1  UNL1        0.0557
     29 C         141.3232  139.2423  162.7032 C.ar    1  UNL1        0.0090
     30 C         140.5216  139.4285  161.4491 C.ar    1  UNL1        0.0237
     31 C         139.1031  138.9445  161.3869 C.ar    1  UNL1        0.1096
     32 N         138.4864  138.2743  162.5786 N.ar    1  UNL1       -0.2054
     33 C         138.1941  138.2409  166.1843 C.3     1  UNL1        0.2542
     34 O         138.6712  137.4180  165.0246 O.3     1  UNL1       -0.4561
     35 S         138.3015  139.1307  160.1327 S.3     1  UNL1       -0.0939
     36 C         138.0898  140.5072  159.5754 C.3     1  UNL1        0.0757
     37 C         143.2157  138.4047  162.2379 C.3     1  UNL1        0.0491
     38 C         144.0986  138.3538  161.0263 C.3     1  UNL1        0.0750
     39 N         143.5503  138.7325  159.6824 N.3     1  UNL1       -0.2702
     40 C         142.7198  137.7525  158.9079 C.3     1  UNL1        0.0897
     41 C         143.8326  140.0912  159.1130 C.3     1  UNL1        0.0897
@<TRIPOS>BOND
     1    33    34    1
     2    34    27    1
     3    27    28   ar
     4    28    29   ar
     5    29    24    1
     6    24    25    1
     7    24    37    1
     8    37    38    1
     9    38    39    1
    10    39    40    1
    11    39    41    1
    12    24     1    1
    13     1     2    1
    14     2     3   ar
    15     3     4   ar
    16     4     5   ar
    17     5     6   ar
    18     6     7    1
    19     6     8   ar
    20     8     9   ar
    21     9    10   ar
    22    10    11   ar
    23    11    12   ar
    24    12    13    1
    25    13    14    1
    26     1    15    1
    27    15    16   ar
    28    16    17   ar
    29    17    18   ar
    30    18    19   ar
    31    19    22    1
    32    22    23    1
    33    19    20   ar
    34    20    21    1
    35    29    30   ar
    36    30    31   ar
    37    31    35    1
    38    35    36    1
    39    31    32   ar
    40    32    27   ar
    41    12     2   ar
    42    20    15   ar
    43    10     4   ar
    44    25    26    1
@<TRIPOS>MOLECULE
*****
 41 44 0 0 0
SMALL
GASTEIGER

@<TRIPOS>ATOM
      1 C         141.4981  141.7717  164.1570 C.3     1  UNL1        0.0799
      2 C         142.3666  142.0088  162.9571 C.ar    1  UNL1        0.0374
      3 C         142.1779  141.1825  161.7195 C.ar    1  UNL1        0.0023
      4 C         143.0463  141.4196  160.5197 C.ar    1  UNL1        0.0181
      5 C         142.8575  140.5934  159.2821 C.ar    1  UNL1        0.0082
      6 C         143.7260  140.8305  158.0823 C.ar    1  UNL1        0.0347
      7 BR        143.5373  140.0042  156.8447 Br      1  UNL1       -0.0490
      8 C         144.7832  141.8939  158.1201 C.ar    1  UNL1        0.0082
      9 C         144.9720  142.7202  159.3577 C.ar    1  UNL1        0.0197
     10 C         144.1036  142.4831  160.5575 C.ar    1  UNL1        0.0844
     11 N         144.2924  143.3094  161.7951 N.ar    1  UNL1       -0.2119
     12 C         143.4238  143.0722  162.9949 C.ar    1  UNL1        0.2211
     13 O         143.6126  143.8985  164.2325 O.3     1  UNL1       -0.4563
     14 C         144.6567  143.5143  165.2388 C.3     1  UNL1        0.2542
     15 C         142.0009  140.9301  165.2922 C.ar    1  UNL1        0.0148
     16 C         142.4820  139.5330  165.0343 C.ar    1  UNL1       -0.0014
     17 C         142.9849  138.6913  166.1696 C.ar    1  UNL1        0.0029
     18 C         143.0065  139.2468  167.5628 C.ar    1  UNL1        0.0392
     19 C         142.5254  140.6440  167.8206 C.ar    1  UNL1        0.1657
     20 C         142.0226  141.4856  166.6854 C.ar    1  UNL1        0.1702
     21 F         141.5415  142.8827  166.9433 F       1  UNL1       -0.2013
     22 O         142.5471  141.1995  169.2138 O.3     1  UNL1       -0.4692
     23 C         143.5631  142.2362  169.5921 C.3     1  UNL1        0.2526
     24 C         140.1268  142.3762  164.2215 C.3     1  UNL1        0.1161
     25 O         140.7279  143.7481  164.1410 O.3     1  UNL1       -0.3820
     26 H         140.0213  144.4124  164.1630 H       1  UNL1        0.2107
     27 C         138.8921  138.7552  163.1659 C.ar    1  UNL1        0.2252
     28 C         139.4931  140.1272  163.0855 C.ar    1  UNL1        0.0557
     29 C         139.5258  141.0042  164.3019 C.ar    1  UNL1        0.0090
     30 C         138.9576  140.5092  165.5988 C.ar    1  UNL1        0.0237
     31 C         138.3566  139.1372  165.6793 C.ar    1  UNL1        0.1096
     32 N         138.3238  138.2602  164.4628 N.ar    1  UNL1       -0.2054
     33 C         139.6647  138.2453  160.7383 C.3     1  UNL1        0.2542
     34 O         138.8593  137.8782  161.9494 O.3     1  UNL1       -0.4561
     35 S         137.7883  138.6422  166.9763 S.3     1  UNL1       -0.0939
     36 C         137.2867  137.2329  167.0860 C.3     1  UNL1        0.0757
     37 C         138.7556  142.9807  164.2859 C.3     1  UNL1        0.0491
     38 C         138.3213  143.9679  163.2435 C.3     1  UNL1        0.0750
     39 N         138.7631  143.7986  161.8200 N.3     1  UNL1       -0.2702
     40 C         139.7353  144.7682  161.2161 C.3     1  UNL1        0.0897
     41 C         138.2326  142.6599  161.0005 C.3     1  UNL1        0.0897
@<TRIPOS>BOND
     1    33    34    1
     2    34    27    1
     3    27    28   ar
     4    28    29   ar
     5    29    24    1
     6    24    25    1
     7    24    37    1
     8    37    38    1
     9    38    39    1
    10    39    40    1
    11    39    41    1
    12    24     1    1
    13     1     2    1
    14     2     3   ar
    15     3     4   ar
    16     4     5   ar
    17     5     6   ar
    18     6     7    1
    19     6     8   ar
    20     8     9   ar
    21     9    10   ar
    22    10    11   ar
    23    11    12   ar
    24    12    13    1
    25    13    14    1
    26     1    15    1
    27    15    16   ar
    28    16    17   ar
    29    17    18   ar
    30    18    19   ar
    31    19    22    1
    32    22    23    1
    33    19    20   ar
    34    20    21    1
    35    29    30   ar
    36    30    31   ar
    37    31    35    1
    38    35    36    1
    39    31    32   ar
    40    32    27   ar
    41    12     2   ar
    42    20    15   ar
    43    10     4   ar
    44    25    26    1
@<TRIPOS>MOLECULE
*****
 41 44 0 0 0
SMALL
GASTEIGER

@<TRIPOS>ATOM
      1 C         141.9036  142.1456  163.4883 C.3     1  UNL1        0.0799
      2 C         142.2703  142.1950  164.9420 C.ar    1  UNL1        0.0374
      3 C         141.4356  141.4639  165.9513 C.ar    1  UNL1        0.0023
      4 C         141.8022  141.5132  167.4049 C.ar    1  UNL1        0.0181
      5 C         140.9674  140.7821  168.4142 C.ar    1  UNL1        0.0082
      6 C         141.3341  140.8315  169.8679 C.ar    1  UNL1        0.0347
      7 BR        140.4994  140.1004  170.8772 Br      1  UNL1       -0.0490
      8 C         142.5356  141.6120  170.3123 C.ar    1  UNL1        0.0082
      9 C         143.3703  142.3430  169.3030 C.ar    1  UNL1        0.0197
     10 C         143.0037  142.2937  167.8494 C.ar    1  UNL1        0.0844
     11 N         143.8384  143.0248  166.8401 N.ar    1  UNL1       -0.2119
     12 C         143.4717  142.9754  165.3864 C.ar    1  UNL1        0.2211
     13 O         144.3065  143.7065  164.3771 O.3     1  UNL1       -0.4563
     14 C         144.0037  145.1387  164.0494 C.3     1  UNL1        0.2542
     15 C         141.2394  143.3249  162.8419 C.ar    1  UNL1        0.0148
     16 C         140.0751  143.9910  163.5133 C.ar    1  UNL1       -0.0014
     17 C         139.4108  145.1704  162.8669 C.ar    1  UNL1        0.0029
     18 C         139.9108  145.6837  161.5491 C.ar    1  UNL1        0.0392
     19 C         141.0751  145.0175  160.8777 C.ar    1  UNL1        0.1657
     20 C         141.7393  143.8382  161.5241 C.ar    1  UNL1        0.1702
     21 F         142.9036  143.1721  160.8527 F       1  UNL1       -0.2013
     22 O         141.5751  145.5307  159.5599 O.3     1  UNL1       -0.4692
     23 C         140.6724  145.5259  158.3619 C.3     1  UNL1        0.2526
     24 C         142.2012  140.9168  162.6811 C.3     1  UNL1        0.1161
     25 O         143.6686  141.2160  162.7666 O.3     1  UNL1       -0.3820
     26 H         144.1663  140.5314  162.2929 H       1  UNL1        0.2107
     27 C         138.4771  140.0722  163.7615 C.ar    1  UNL1        0.2252
     28 C         139.9444  140.3714  163.8470 C.ar    1  UNL1        0.0557
     29 C         140.7338  140.6176  162.5956 C.ar    1  UNL1        0.0090
     30 C         140.0559  140.5647  161.2586 C.ar    1  UNL1        0.0237
     31 C         138.5885  140.2655  161.1731 C.ar    1  UNL1        0.1096
     32 N         137.7991  140.0192  162.4246 N.ar    1  UNL1       -0.2054
     33 C         138.2428  138.9387  166.0875 C.3     1  UNL1        0.2542
     34 O         137.6877  139.8259  165.0131 O.3     1  UNL1       -0.4561
     35 S         137.9106  140.2125  159.8361 S.3     1  UNL1       -0.0939
     36 C         138.7252  140.0396  158.5885 C.3     1  UNL1        0.0757
     37 C         142.4988  139.6881  161.8739 C.3     1  UNL1        0.0491
     38 C         143.0689  138.4719  162.5416 C.3     1  UNL1        0.0750
     39 N         142.8521  138.2512  164.0094 N.3     1  UNL1       -0.2702
     40 C         143.8305  138.8032  165.0033 C.3     1  UNL1        0.0897
     41 C         141.6570  137.4784  164.4832 C.3     1  UNL1        0.0897
@<TRIPOS>BOND
     1    33    34    1
     2    34    27    1
     3    27    28   ar
     4    28    29   ar
     5    29    24    1
     6    24    25    1
     7    24    37    1
     8    37    38    1
     9    38    39    1
    10    39    40    1
    11    39    41    1
    12    24     1    1
    13     1     2    1
    14     2     3   ar
    15     3     4   ar
    16     4     5   ar
    17     5     6   ar
    18     6     7    1
    19     6     8   ar
    20     8     9   ar
    21     9    10   ar
    22    10    11   ar
    23    11    12   ar
    24    12    13    1
    25    13    14    1
    26     1    15    1
    27    15    16   ar
    28    16    17   ar
    29    17    18   ar
    30    18    19   ar
    31    19    22    1
    32    22    23    1
    33    19    20   ar
    34    20    21    1
    35    29    30   ar
    36    30    31   ar
    37    31    35    1
    38    35    36    1
    39    31    32   ar
    40    32    27   ar
    41    12     2   ar
    42    20    15   ar
    43    10     4   ar
    44    25    26    1
@<TRIPOS>MOLECULE
*****
 41 44 0 0 0
SMALL
GASTEIGER

@<TRIPOS>ATOM
      1 C         139.9990  139.9343  163.7805 C.3     1  UNL1        0.0799
      2 C         139.8264  140.1005  165.2613 C.ar    1  UNL1        0.0374
      3 C         140.2324  141.3833  165.9243 C.ar    1  UNL1        0.0023
      4 C         140.0598  141.5495  167.4050 C.ar    1  UNL1        0.0181
      5 C         140.4658  142.8323  168.0681 C.ar    1  UNL1        0.0082
      6 C         140.2932  142.9986  169.5489 C.ar    1  UNL1        0.0347
      7 BR        140.6992  144.2813  170.2119 Br      1  UNL1       -0.0490
      8 C         139.7146  141.8820  170.3665 C.ar    1  UNL1        0.0082
      9 C         139.3086  140.5992  169.7034 C.ar    1  UNL1        0.0197
     10 C         139.4812  140.4330  168.2227 C.ar    1  UNL1        0.0844
     11 N         139.0752  139.1502  167.5597 N.ar    1  UNL1       -0.2119
     12 C         139.2479  138.9840  166.0789 C.ar    1  UNL1        0.2211
     13 O         138.8419  137.7012  165.4158 O.3     1  UNL1       -0.4563
     14 C         137.8527  136.7923  166.0833 C.3     1  UNL1        0.2542
     15 C         141.3072  139.4521  163.2273 C.ar    1  UNL1        0.0148
     16 C         141.3664  138.1699  162.4513 C.ar    1  UNL1       -0.0014
     17 C         142.6747  137.6876  161.8981 C.ar    1  UNL1        0.0029
     18 C         143.9238  138.4877  162.1210 C.ar    1  UNL1        0.0392
     19 C         143.8646  139.7700  162.8972 C.ar    1  UNL1        0.1657
     20 C         142.5563  140.2521  163.4503 C.ar    1  UNL1        0.1702
     21 F         142.4972  141.5344  164.2264 F       1  UNL1       -0.2013
     22 O         145.1136  140.5700  163.1201 O.3     1  UNL1       -0.4692
     23 C         145.2618  141.9215  162.4864 C.3     1  UNL1        0.2526
     24 C         138.8634  140.2502  162.8529 C.3     1  UNL1        0.1161
     25 O         138.3239  138.8633  163.0409 O.3     1  UNL1       -0.3820
     26 H         137.5152  138.7570  162.5158 H       1  UNL1        0.2107
     27 C         139.4528  144.1436  163.3471 C.ar    1  UNL1        0.2252
     28 C         138.9133  142.7566  163.5351 C.ar    1  UNL1        0.0557
     29 C         139.4028  141.6372  162.6649 C.ar    1  UNL1        0.0090
     30 C         140.4317  141.9048  161.6067 C.ar    1  UNL1        0.0237
     31 C         140.9711  143.2917  161.4188 C.ar    1  UNL1        0.1096
     32 N         140.4816  144.4111  162.2890 N.ar    1  UNL1       -0.2054
     33 C         138.5903  144.9948  165.6453 C.3     1  UNL1        0.2542
     34 O         138.9632  145.2631  164.2174 O.3     1  UNL1       -0.4561
     35 S         142.0000  143.5592  160.3605 S.3     1  UNL1       -0.0939
     36 C         142.4202  142.4616  159.4285 C.3     1  UNL1        0.0757
     37 C         137.7277  140.5662  161.9253 C.3     1  UNL1        0.0491
     38 C         137.4801  139.7052  160.7223 C.3     1  UNL1        0.0750
     39 N         138.3715  139.8203  159.5214 N.3     1  UNL1       -0.2702
     40 C         138.1008  140.8695  158.4842 C.3     1  UNL1        0.0897
     41 C         139.5336  138.8862  159.3577 C.3     1  UNL1        0.0897
@<TRIPOS>BOND
     1    33    34    1
     2    34    27    1
     3    27    28   ar
     4    28    29   ar
     5    29    24    1
     6    24    25    1
     7    24    37    1
     8    37    38    1
     9    38    39    1
    10    39    40    1
    11    39    41    1
    12    24     1    1
    13     1     2    1
    14     2     3   ar
    15     3     4   ar
    16     4     5   ar
    17     5     6   ar
    18     6     7    1
    19     6     8   ar
    20     8     9   ar
    21     9    10   ar
    22    10    11   ar
    23    11    12   ar
    24    12    13    1
    25    13    14    1
    26     1    15    1
    27    15    16   ar
    28    16    17   ar
    29    17    18   ar
    30    18    19   ar
    31    19    22    1
    32    22    23    1
    33    19    20   ar
    34    20    21    1
    35    29    30   ar
    36    30    31   ar
    37    31    35    1
    38    35    36    1
    39    31    32   ar
    40    32    27   ar
    41    12     2   ar
    42    20    15   ar
    43    10     4   ar
    44    25    26    1
@<TRIPOS>MOLECULE
*****
 41 44 0 0 0
SMALL
GASTEIGER

@<TRIPOS>ATOM
      1 C         141.5048  140.5681  163.5539 C.3     1  UNL1        0.0799
      2 C         141.7035  140.4174  165.0331 C.ar    1  UNL1        0.0374
      3 C         140.8775  141.2281  165.9872 C.ar    1  UNL1        0.0023
      4 C         141.0761  141.0774  167.4663 C.ar    1  UNL1        0.0181
      5 C         140.2501  141.8882  168.4205 C.ar    1  UNL1        0.0082
      6 C         140.4488  141.7374  169.8996 C.ar    1  UNL1        0.0347
      7 BR        139.6228  142.5482  170.8538 Br      1  UNL1       -0.0490
      8 C         141.4735  140.7760  170.4246 C.ar    1  UNL1        0.0082
      9 C         142.2995  139.9653  169.4705 C.ar    1  UNL1        0.0197
     10 C         142.1009  140.1159  167.9914 C.ar    1  UNL1        0.0844
     11 N         142.9269  139.3052  167.0372 N.ar    1  UNL1       -0.2119
     12 C         142.7282  139.4559  165.5580 C.ar    1  UNL1        0.2211
     13 O         143.5542  138.6452  164.6039 O.3     1  UNL1       -0.4563
     14 C         144.9637  139.0560  164.2960 C.3     1  UNL1        0.2542
     15 C         142.4772  141.3742  162.7449 C.ar    1  UNL1        0.0148
     16 C         143.2224  140.7335  161.6117 C.ar    1  UNL1       -0.0014
     17 C         144.1948  141.5397  160.8025 C.ar    1  UNL1        0.0029
     18 C         144.4219  142.9865  161.1267 C.ar    1  UNL1        0.0392
     19 C         143.6767  143.6272  162.2599 C.ar    1  UNL1        0.1657
     20 C         142.7043  142.8211  163.0690 C.ar    1  UNL1        0.1702
     21 F         141.9592  143.4618  164.2022 F       1  UNL1       -0.2013
     22 O         143.9039  145.0740  162.5841 O.3     1  UNL1       -0.4692
     23 C         143.9301  145.5272  164.0138 C.3     1  UNL1        0.2526
     24 C         140.3337  139.9126  162.8839 C.3     1  UNL1        0.1161
     25 O         140.9348  138.5647  163.1519 O.3     1  UNL1       -0.3820
     26 H         140.3504  137.8746  162.8011 H       1  UNL1        0.2107
     27 C         139.1913  143.1955  160.9688 C.ar    1  UNL1        0.2252
     28 C         139.7923  141.8476  161.2368 C.ar    1  UNL1        0.0557
     29 C         139.7326  141.2605  162.6159 C.ar    1  UNL1        0.0090
     30 C         139.0719  142.0214  163.7269 C.ar    1  UNL1        0.0237
     31 C         138.4708  143.3693  163.4589 C.ar    1  UNL1        0.1096
     32 N         138.5305  143.9564  162.0799 N.ar    1  UNL1       -0.2054
     33 C         139.5764  142.9076  158.4156 C.3     1  UNL1        0.2542
     34 O         139.2510  143.7826  159.5897 O.3     1  UNL1       -0.4561
     35 S         137.8100  144.1302  164.5700 S.3     1  UNL1       -0.0939
     36 C         138.6415  144.9248  165.5329 C.3     1  UNL1        0.0757
     37 C         139.1626  139.2572  162.2138 C.3     1  UNL1        0.0491
     38 C         139.3884  138.1891  161.1852 C.3     1  UNL1        0.0750
     39 N         140.0798  138.5229  159.8966 N.3     1  UNL1       -0.2702
     40 C         141.5447  138.2428  159.7370 C.3     1  UNL1        0.0897
     41 C         139.3062  139.1369  158.7676 C.3     1  UNL1        0.0897
@<TRIPOS>BOND
     1    33    34    1
     2    34    27    1
     3    27    28   ar
     4    28    29   ar
     5    29    24    1
     6    24    25    1
     7    24    37    1
     8    37    38    1
     9    38    39    1
    10    39    40    1
    11    39    41    1
    12    24     1    1
    13     1     2    1
    14     2     3   ar
    15     3     4   ar
    16     4     5   ar
    17     5     6   ar
    18     6     7    1
    19     6     8   ar
    20     8     9   ar
    21     9    10   ar
    22    10    11   ar
    23    11    12   ar
    24    12    13    1
    25    13    14    1
    26     1    15    1
    27    15    16   ar
    28    16    17   ar
    29    17    18   ar
    30    18    19   ar
    31    19    22    1
    32    22    23    1
    33    19    20   ar
    34    20    21    1
    35    29    30   ar
    36    30    31   ar
    37    31    35    1
    38    35    36    1
    39    31    32   ar
    40    32    27   ar
    41    12     2   ar
    42    20    15   ar
    43    10     4   ar
    44    25    26    1
@<TRIPOS>MOLECULE
*****
 41 44 0 0 0
SMALL
GASTEIGER

@<TRIPOS>ATOM
      1 C         141.4843  142.4797  162.5301 C.3     1  UNL1        0.0799
      2 C         141.9165  142.3904  163.9638 C.ar    1  UNL1        0.0374
      3 C         141.0272  141.7303  164.9754 C.ar    1  UNL1        0.0023
      4 C         141.4593  141.6410  166.4090 C.ar    1  UNL1        0.0181
      5 C         140.5699  140.9810  167.4207 C.ar    1  UNL1        0.0082
      6 C         141.0021  140.8917  168.8544 C.ar    1  UNL1        0.0347
      7 BR        140.1128  140.2316  169.8660 Br      1  UNL1       -0.0490
      8 C         142.3235  141.4624  169.2763 C.ar    1  UNL1        0.0082
      9 C         143.2128  142.1224  168.2647 C.ar    1  UNL1        0.0197
     10 C         142.7807  142.2117  166.8311 C.ar    1  UNL1        0.0844
     11 N         143.6701  142.8718  165.8194 N.ar    1  UNL1       -0.2119
     12 C         143.2379  142.9611  164.3857 C.ar    1  UNL1        0.2211
     13 O         144.1272  143.6211  163.3741 O.3     1  UNL1       -0.4563
     14 C         144.0150  145.0962  163.1257 C.3     1  UNL1        0.2542
     15 C         142.3724  141.9478  161.4446 C.ar    1  UNL1        0.0148
     16 C         142.8250  142.8512  160.3360 C.ar    1  UNL1       -0.0014
     17 C         143.7131  142.3194  159.2504 C.ar    1  UNL1        0.0029
     18 C         144.1486  140.8842  159.2734 C.ar    1  UNL1        0.0392
     19 C         143.6959  139.9808  160.3820 C.ar    1  UNL1        0.1657
     20 C         142.8079  140.5126  161.4676 C.ar    1  UNL1        0.1702
     21 F         142.3552  139.6092  162.5761 F       1  UNL1       -0.2013
     22 O         144.1314  138.5456  160.4051 O.3     1  UNL1       -0.4692
     23 C         143.1248  137.4530  160.1970 C.3     1  UNL1        0.2526
     24 C         140.1641  143.1008  162.1821 C.3     1  UNL1        0.1161
     25 O         140.6371  144.4140  162.7313 O.3     1  UNL1       -0.3820
     26 H         139.9342  145.0758  162.6375 H       1  UNL1        0.2107
     27 C         138.8360  139.3646  162.0177 C.ar    1  UNL1        0.2252
     28 C         139.3091  140.6778  162.5669 C.ar    1  UNL1        0.0557
     29 C         139.6910  141.7876  161.6328 C.ar    1  UNL1        0.0090
     30 C         139.5999  141.5841  160.1495 C.ar    1  UNL1        0.0237
     31 C         139.1269  140.2709  159.6003 C.ar    1  UNL1        0.1096
     32 N         138.7449  139.1611  160.5344 N.ar    1  UNL1       -0.2054
     33 C         138.9549  138.2589  164.3657 C.3     1  UNL1        0.2542
     34 O         138.4541  138.2548  162.9518 O.3     1  UNL1       -0.4561
     35 S         139.0358  140.0674  158.1169 S.3     1  UNL1       -0.0939
     36 C         139.6361  138.8444  157.4894 C.3     1  UNL1        0.0757
     37 C         138.8438  143.7219  161.8340 C.3     1  UNL1        0.0491
     38 C         138.0669  144.4671  162.8786 C.3     1  UNL1        0.0750
     39 N         138.0903  144.0023  164.3046 N.3     1  UNL1       -0.2702
     40 C         138.6522  144.8914  165.3740 C.3     1  UNL1        0.0897
     41 C         137.5518  142.6485  164.6611 C.3     1  UNL1        0.0897
@<TRIPOS>BOND
     1    33    34    1
     2    34    27    1
     3    27    28   ar
     4    28    29   ar
     5    29    24    1
     6    24    25    1
     7    24    37    1
     8    37    38    1
     9    38    39    1
    10    39    40    1
    11    39    41    1
    12    24     1    1
    13     1     2    1
    14     2     3   ar
    15     3     4   ar
    16     4     5   ar
    17     5     6   ar
    18     6     7    1
    19     6     8   ar
    20     8     9   ar
    21     9    10   ar
    22    10    11   ar
    23    11    12   ar
    24    12    13    1
    25    13    14    1
    26     1    15    1
    27    15    16   ar
    28    16    17   ar
    29    17    18   ar
    30    18    19   ar
    31    19    22    1
    32    22    23    1
    33    19    20   ar
    34    20    21    1
    35    29    30   ar
    36    30    31   ar
    37    31    35    1
    38    35    36    1
    39    31    32   ar
    40    32    27   ar
    41    12     2   ar
    42    20    15   ar
    43    10     4   ar
    44    25    26    1
