@<TRIPOS>MOLECULE
*****
 42 46 0 0 0
SMALL
GASTEIGER

@<TRIPOS>ATOM
      1 C         141.6172  139.2990  161.1522 C.ar    1  UNL1        0.0797
      2 C         142.6719  138.9097  160.1591 C.ar    1  UNL1        0.0396
      3 C         141.9835  138.4082  158.9244 C.ar    1  UNL1        0.1032
      4 N         140.5033  138.4875  159.1543 N.ar    1  UNL1       -0.1690
      5 N         140.2769  139.0380  160.5312 N.ar    1  UNL1       -0.2487
      6 C         142.8718  140.5824  167.7876 C.ar    1  UNL1        0.1387
      7 C         142.9118  139.1007  167.5580 C.ar    1  UNL1        0.0369
      8 C         142.6689  138.5476  166.1850 C.ar    1  UNL1        0.0031
      9 C         142.3860  139.4763  165.0416 C.ar    1  UNL1        0.0002
     10 C         142.1430  138.9233  163.6686 C.ar    1  UNL1        0.0015
     11 C         141.8601  139.8520  162.5252 C.ar    1  UNL1        0.0174
     12 C         141.8201  141.3338  162.7548 C.ar    1  UNL1        0.0015
     13 C         142.0631  141.8869  164.1278 C.ar    1  UNL1        0.0001
     14 C         142.3460  140.9581  165.2712 C.ar    1  UNL1        0.0030
     15 C         142.5889  141.5111  166.6442 C.ar    1  UNL1        0.0369
     16 C         142.9518  140.2546  170.3636 C.3     1  UNL1        0.2525
     17 O         143.1147  141.1355  169.1606 O.3     1  UNL1       -0.4714
     18 C         142.6569  137.9142  157.6785 C.ar    1  UNL1        0.0308
     19 C         142.8747  136.4440  157.4762 C.ar    1  UNL1        0.0138
     20 C         143.5482  135.9500  156.2302 C.ar    1  UNL1        0.0578
     21 CL        143.7660  134.4797  156.0280 Cl      1  UNL1       -0.0822
     22 C         144.0038  136.9263  155.1865 C.ar    1  UNL1        0.0123
     23 C         143.7859  138.3965  155.3888 C.ar    1  UNL1        0.0123
     24 C         143.1125  138.8905  156.6347 C.ar    1  UNL1        0.0592
     25 CL        142.8946  140.3607  156.8370 Cl      1  UNL1       -0.0822
     26 C         138.9443  139.2843  161.1741 C.3     1  UNL1        0.1274
     27 C         137.7402  139.5595  160.3229 C.3     1  UNL1        0.0312
     28 C         138.8156  139.2555  162.6683 C.ar    1  UNL1       -0.0001
     29 C         138.9696  137.9605  163.4094 C.ar    1  UNL1       -0.0023
     30 C         138.8409  137.9315  164.9036 C.ar    1  UNL1        0.0042
     31 C         138.5582  139.1977  165.6567 C.ar    1  UNL1        0.0533
     32 C         138.4043  140.4927  164.9156 C.ar    1  UNL1        0.0042
     33 C         138.5329  140.5216  163.4214 C.ar    1  UNL1       -0.0023
     34 C         138.4295  139.1687  167.1508 C.2     1  UNL1        0.2459
     35 O         137.3494  138.3510  167.7949 O.2     1  UNL1       -0.2701
     36 N         139.3809  139.9575  168.0010 N.am    1  UNL1       -0.3005
     37 H         140.0899  140.4941  167.5783 H       1  UNL1        0.1498
     38 C         139.2522  139.9285  169.4952 C.3     1  UNL1        0.0956
     39 C         138.9063  141.1822  170.2426 C.3     1  UNL1        0.0629
     40 C         139.9616  142.2163  170.5017 C.2     1  UNL1        0.0520
     41 O         140.4316  143.1038  169.3876 O.co2   1  UNL1       -0.5491
     42 O         140.5468  142.3628  171.8750 O.co2   1  UNL1       -0.5491
@<TRIPOS>UNITY_ATOM_ATTR
41 1
charge -1
@<TRIPOS>BOND
     1    16    17    1
     2    17     6    1
     3     6     7   ar
     4     7     8   ar
     5     8     9   ar
     6     9    10   ar
     7    10    11   ar
     8    11     1    1
     9     1     2   ar
    10     2     3   ar
    11     3    18    1
    12    18    19   ar
    13    19    20   ar
    14    20    21    1
    15    20    22   ar
    16    22    23   ar
    17    23    24   ar
    18    24    25    1
    19     3     4   ar
    20     4     5   ar
    21     5    26    1
    22    26    27    1
    23    26    28    1
    24    28    29   ar
    25    29    30   ar
    26    30    31   ar
    27    31    34    1
    28    34    35    2
    29    34    36   am
    30    36    38    1
    31    38    39    1
    32    39    40    1
    33    40    41   ar
    34    40    42   ar
    35    31    32   ar
    36    32    33   ar
    37    11    12   ar
    38    12    13   ar
    39    13    14   ar
    40    14    15   ar
    41    15     6   ar
    42    14     9   ar
    43     5     1   ar
    44    33    28   ar
    45    24    18   ar
    46    36    37    1
@<TRIPOS>MOLECULE
*****
 42 46 0 0 0
SMALL
GASTEIGER

@<TRIPOS>ATOM
      1 C         142.1535  140.6098  161.2673 C.ar    1  UNL1        0.0797
      2 C         143.2323  140.2502  160.2891 C.ar    1  UNL1        0.0396
      3 C         142.5887  140.0157  158.9546 C.ar    1  UNL1        0.1032
      4 N         141.1121  140.2304  159.1080 N.ar    1  UNL1       -0.1690
      5 N         140.8430  140.5976  160.5373 N.ar    1  UNL1       -0.2487
      6 C         142.9449  140.7701  168.0935 C.ar    1  UNL1        0.1387
      7 C         142.7517  139.3488  167.6549 C.ar    1  UNL1        0.0369
      8 C         142.5548  139.0325  166.2019 C.ar    1  UNL1        0.0031
      9 C         142.5510  140.1375  165.1876 C.ar    1  UNL1        0.0002
     10 C         142.3541  139.8211  163.7346 C.ar    1  UNL1        0.0015
     11 C         142.3504  140.9262  162.7202 C.ar    1  UNL1        0.0174
     12 C         142.5436  142.3476  163.1589 C.ar    1  UNL1        0.0015
     13 C         142.7405  142.6639  164.6119 C.ar    1  UNL1        0.0001
     14 C         142.7442  141.5588  165.6262 C.ar    1  UNL1        0.0030
     15 C         142.9412  141.8751  167.0792 C.ar    1  UNL1        0.0369
     16 C         143.8401  142.3508  169.9509 C.3     1  UNL1        0.2525
     17 O         143.1418  141.0864  169.5465 O.3     1  UNL1       -0.4714
     18 C         143.2972  139.6337  157.6890 C.ar    1  UNL1        0.0308
     19 C         144.3440  140.5402  157.1125 C.ar    1  UNL1        0.0138
     20 C         145.0525  140.1581  155.8468 C.ar    1  UNL1        0.0578
     21 CL        146.0994  141.0646  155.2702 Cl      1  UNL1       -0.0822
     22 C         144.7143  138.8694  155.1576 C.ar    1  UNL1        0.0123
     23 C         143.6675  137.9628  155.7342 C.ar    1  UNL1        0.0123
     24 C         142.9590  138.3450  156.9999 C.ar    1  UNL1        0.0592
     25 CL        141.9122  137.4384  157.5764 Cl      1  UNL1       -0.0822
     26 C         139.4996  140.8995  161.1322 C.3     1  UNL1        0.1274
     27 C         138.4407  141.5577  160.2980 C.3     1  UNL1        0.0312
     28 C         139.2148  140.5433  162.5611 C.ar    1  UNL1       -0.0001
     29 C         139.0627  141.6262  163.5880 C.ar    1  UNL1       -0.0023
     30 C         138.7779  141.2701  165.0170 C.ar    1  UNL1        0.0042
     31 C         138.6452  139.8311  165.4192 C.ar    1  UNL1        0.0533
     32 C         138.7973  138.7482  164.3924 C.ar    1  UNL1        0.0042
     33 C         139.0821  139.1043  162.9634 C.ar    1  UNL1       -0.0023
     34 C         138.3604  139.4750  166.8482 C.2     1  UNL1        0.2459
     35 O         137.2867  138.4792  167.1733 O.2     1  UNL1       -0.2701
     36 N         139.1493  140.1147  167.9521 N.am    1  UNL1       -0.3005
     37 H         139.8539  140.7683  167.7386 H       1  UNL1        0.1498
     38 C         138.8645  139.7587  169.3811 C.3     1  UNL1        0.0956
     39 C         139.7757  140.2416  170.4703 C.3     1  UNL1        0.0629
     40 C         140.1127  141.6995  170.5748 C.2     1  UNL1        0.0520
     41 O         140.0518  142.5726  169.3566 O.co2   1  UNL1       -0.5491
     42 O         140.5105  142.2844  171.8975 O.co2   1  UNL1       -0.5491
@<TRIPOS>UNITY_ATOM_ATTR
41 1
charge -1
@<TRIPOS>BOND
     1    16    17    1
     2    17     6    1
     3     6     7   ar
     4     7     8   ar
     5     8     9   ar
     6     9    10   ar
     7    10    11   ar
     8    11     1    1
     9     1     2   ar
    10     2     3   ar
    11     3    18    1
    12    18    19   ar
    13    19    20   ar
    14    20    21    1
    15    20    22   ar
    16    22    23   ar
    17    23    24   ar
    18    24    25    1
    19     3     4   ar
    20     4     5   ar
    21     5    26    1
    22    26    27    1
    23    26    28    1
    24    28    29   ar
    25    29    30   ar
    26    30    31   ar
    27    31    34    1
    28    34    35    2
    29    34    36   am
    30    36    38    1
    31    38    39    1
    32    39    40    1
    33    40    41   ar
    34    40    42   ar
    35    31    32   ar
    36    32    33   ar
    37    11    12   ar
    38    12    13   ar
    39    13    14   ar
    40    14    15   ar
    41    15     6   ar
    42    14     9   ar
    43     5     1   ar
    44    33    28   ar
    45    24    18   ar
    46    36    37    1
@<TRIPOS>MOLECULE
*****
 42 46 0 0 0
SMALL
GASTEIGER

@<TRIPOS>ATOM
      1 C         141.2882  142.2621  160.4626 C.ar    1  UNL1        0.0797
      2 C         140.5418  142.8753  159.3151 C.ar    1  UNL1        0.0396
      3 C         141.4378  143.8897  158.6683 C.ar    1  UNL1        0.1032
      4 N         142.7380  143.9034  159.4161 N.ar    1  UNL1       -0.1690
      5 N         142.6456  142.8975  160.5251 N.ar    1  UNL1       -0.2487
      6 C         138.5024  138.4001  165.4198 C.ar    1  UNL1        0.1387
      7 C         138.3150  139.8484  165.7620 C.ar    1  UNL1        0.0369
      8 C         138.8346  140.9105  164.8390 C.ar    1  UNL1        0.0031
      9 C         139.5417  140.5242  163.5738 C.ar    1  UNL1        0.0002
     10 C         140.0614  141.5863  162.6508 C.ar    1  UNL1        0.0015
     11 C         140.7685  141.2001  161.3856 C.ar    1  UNL1        0.0174
     12 C         140.9560  139.7516  161.0433 C.ar    1  UNL1        0.0015
     13 C         140.4363  138.6896  161.9663 C.ar    1  UNL1        0.0001
     14 C         139.7292  139.0759  163.2316 C.ar    1  UNL1        0.0030
     15 C         139.2095  138.0138  164.1546 C.ar    1  UNL1        0.0369
     16 C         137.0557  137.7060  167.4631 C.3     1  UNL1        0.2525
     17 O         137.9827  137.3380  166.3428 O.3     1  UNL1       -0.4714
     18 C         141.0940  144.7408  157.4821 C.ar    1  UNL1        0.0308
     19 C         140.1457  145.8929  157.6351 C.ar    1  UNL1        0.0138
     20 C         139.8020  146.7440  156.4488 C.ar    1  UNL1        0.0578
     21 CL        138.8536  147.8961  156.6018 Cl      1  UNL1       -0.0822
     22 C         140.4066  146.4431  155.1094 C.ar    1  UNL1        0.0123
     23 C         141.3549  145.2911  154.9563 C.ar    1  UNL1        0.0123
     24 C         141.6986  144.4399  156.1427 C.ar    1  UNL1        0.0592
     25 CL        142.6469  143.2879  155.9896 Cl      1  UNL1       -0.0822
     26 C         143.7215  142.5824  161.5215 C.3     1  UNL1        0.1274
     27 C         145.1471  142.4576  161.0718 C.3     1  UNL1        0.0312
     28 C         143.3721  142.3920  162.9678 C.ar    1  UNL1       -0.0001
     29 C         142.8336  143.5417  163.7668 C.ar    1  UNL1       -0.0023
     30 C         142.4841  143.3515  165.2130 C.ar    1  UNL1        0.0042
     31 C         142.6732  142.0116  165.8603 C.ar    1  UNL1        0.0533
     32 C         143.2117  140.8619  165.0614 C.ar    1  UNL1        0.0042
     33 C         143.5611  141.0522  163.6151 C.ar    1  UNL1       -0.0023
     34 C         142.3237  141.8213  167.3065 C.2     1  UNL1        0.2459
     35 O         143.0711  142.5778  168.3646 O.2     1  UNL1       -0.2701
     36 N         141.2268  140.8747  167.6949 N.am    1  UNL1       -0.3005
     37 H         140.7363  140.3782  167.0005 H       1  UNL1        0.1498
     38 C         140.8774  140.6844  169.1411 C.3     1  UNL1        0.0956
     39 C         139.7784  141.4962  169.7602 C.3     1  UNL1        0.0629
     40 C         140.1113  142.6075  170.7111 C.2     1  UNL1        0.0520
     41 O         140.5126  142.2928  172.1217 O.co2   1  UNL1       -0.5491
     42 O         140.0428  144.0337  170.2514 O.co2   1  UNL1       -0.5491
@<TRIPOS>UNITY_ATOM_ATTR
41 1
charge -1
@<TRIPOS>BOND
     1    16    17    1
     2    17     6    1
     3     6     7   ar
     4     7     8   ar
     5     8     9   ar
     6     9    10   ar
     7    10    11   ar
     8    11     1    1
     9     1     2   ar
    10     2     3   ar
    11     3    18    1
    12    18    19   ar
    13    19    20   ar
    14    20    21    1
    15    20    22   ar
    16    22    23   ar
    17    23    24   ar
    18    24    25    1
    19     3     4   ar
    20     4     5   ar
    21     5    26    1
    22    26    27    1
    23    26    28    1
    24    28    29   ar
    25    29    30   ar
    26    30    31   ar
    27    31    34    1
    28    34    35    2
    29    34    36   am
    30    36    38    1
    31    38    39    1
    32    39    40    1
    33    40    41   ar
    34    40    42   ar
    35    31    32   ar
    36    32    33   ar
    37    11    12   ar
    38    12    13   ar
    39    13    14   ar
    40    14    15   ar
    41    15     6   ar
    42    14     9   ar
    43     5     1   ar
    44    33    28   ar
    45    24    18   ar
    46    36    37    1
@<TRIPOS>MOLECULE
*****
 42 46 0 0 0
SMALL
GASTEIGER

@<TRIPOS>ATOM
      1 C         141.0726  141.0185  161.1320 C.ar    1  UNL1        0.0797
      2 C         141.9262  141.7703  160.1542 C.ar    1  UNL1        0.0396
      3 C         141.0914  142.0699  158.9446 C.ar    1  UNL1        0.1032
      4 N         139.7217  141.5033  159.1748 N.ar    1  UNL1       -0.1690
      5 N         139.7101  140.8535  160.5267 N.ar    1  UNL1       -0.2487
      6 C         142.7854  139.9439  167.7018 C.ar    1  UNL1        0.1387
      7 C         142.3340  141.3649  167.5382 C.ar    1  UNL1        0.0369
      8 C         141.9011  141.8641  166.1915 C.ar    1  UNL1        0.0031
      9 C         141.9197  140.9422  165.0084 C.ar    1  UNL1        0.0002
     10 C         141.4869  141.4413  163.6618 C.ar    1  UNL1        0.0015
     11 C         141.5055  140.5194  162.4787 C.ar    1  UNL1        0.0174
     12 C         141.9569  139.0983  162.6423 C.ar    1  UNL1        0.0015
     13 C         142.3897  138.5991  163.9889 C.ar    1  UNL1        0.0001
     14 C         142.3711  139.5211  165.1720 C.ar    1  UNL1        0.0030
     15 C         142.8040  139.0220  166.5187 C.ar    1  UNL1        0.0369
     16 C         142.9812  140.2819  170.2703 C.3     1  UNL1        0.2525
     17 O         143.2182  139.4448  169.0484 O.3     1  UNL1       -0.4714
     18 C         141.5462  142.8068  157.7198 C.ar    1  UNL1        0.0308
     19 C         141.0597  144.2016  157.4598 C.ar    1  UNL1        0.0138
     20 C         141.5146  144.9384  156.2349 C.ar    1  UNL1        0.0578
     21 CL        141.0281  146.3333  155.9748 Cl      1  UNL1       -0.0822
     22 C         142.4560  144.2803  155.2702 C.ar    1  UNL1        0.0123
     23 C         142.9425  142.8855  155.5302 C.ar    1  UNL1        0.0123
     24 C         142.4876  142.1487  156.7551 C.ar    1  UNL1        0.0592
     25 CL        142.9741  140.7538  157.0151 Cl      1  UNL1       -0.0822
     26 C         138.5413  140.1604  161.1618 C.3     1  UNL1        0.1274
     27 C         137.4098  139.6651  160.3104 C.3     1  UNL1        0.0312
     28 C         138.5037  139.9625  162.6482 C.ar    1  UNL1       -0.0001
     29 C         138.7761  138.6075  163.2314 C.ar    1  UNL1       -0.0023
     30 C         138.7385  138.4095  164.7178 C.ar    1  UNL1        0.0042
     31 C         138.4285  139.5663  165.6209 C.ar    1  UNL1        0.0533
     32 C         138.1561  140.9212  165.0377 C.ar    1  UNL1        0.0042
     33 C         138.1936  141.1193  163.5514 C.ar    1  UNL1       -0.0023
     34 C         138.3909  139.3683  167.1073 C.2     1  UNL1        0.2459
     35 O         137.4505  138.3650  167.7067 O.2     1  UNL1       -0.2701
     36 N         139.2937  140.1734  167.9943 N.am    1  UNL1       -0.3005
     37 H         139.9109  140.8318  167.6009 H       1  UNL1        0.1498
     38 C         139.2561  139.9753  169.4807 C.3     1  UNL1        0.0956
     39 C         138.8652  141.1112  170.3790 C.3     1  UNL1        0.0629
     40 C         139.8209  142.2427  170.6165 C.2     1  UNL1        0.0520
     41 O         140.6077  142.3048  171.8920 O.co2   1  UNL1       -0.5491
     42 O         139.9897  143.3122  169.5784 O.co2   1  UNL1       -0.5491
@<TRIPOS>UNITY_ATOM_ATTR
41 1
charge -1
@<TRIPOS>BOND
     1    16    17    1
     2    17     6    1
     3     6     7   ar
     4     7     8   ar
     5     8     9   ar
     6     9    10   ar
     7    10    11   ar
     8    11     1    1
     9     1     2   ar
    10     2     3   ar
    11     3    18    1
    12    18    19   ar
    13    19    20   ar
    14    20    21    1
    15    20    22   ar
    16    22    23   ar
    17    23    24   ar
    18    24    25    1
    19     3     4   ar
    20     4     5   ar
    21     5    26    1
    22    26    27    1
    23    26    28    1
    24    28    29   ar
    25    29    30   ar
    26    30    31   ar
    27    31    34    1
    28    34    35    2
    29    34    36   am
    30    36    38    1
    31    38    39    1
    32    39    40    1
    33    40    41   ar
    34    40    42   ar
    35    31    32   ar
    36    32    33   ar
    37    11    12   ar
    38    12    13   ar
    39    13    14   ar
    40    14    15   ar
    41    15     6   ar
    42    14     9   ar
    43     5     1   ar
    44    33    28   ar
    45    24    18   ar
    46    36    37    1
@<TRIPOS>MOLECULE
*****
 42 46 0 0 0
SMALL
GASTEIGER

@<TRIPOS>ATOM
      1 C         144.4856  141.8265  158.4918 C.ar    1  UNL1        0.0797
      2 C         145.5106  142.5441  157.6646 C.ar    1  UNL1        0.0396
      3 C         145.9195  141.6360  156.5429 C.ar    1  UNL1        0.1032
      4 N         145.1472  140.3572  156.6768 N.ar    1  UNL1       -0.1690
      5 N         144.2609  140.4748  157.8813 N.ar    1  UNL1       -0.2487
      6 C         140.3789  144.5547  163.2815 C.ar    1  UNL1        0.1387
      7 C         139.6766  144.5865  161.9566 C.ar    1  UNL1        0.0369
      8 C         140.3574  144.0473  160.7336 C.ar    1  UNL1        0.0031
      9 C         141.7406  143.4762  160.8357 C.ar    1  UNL1        0.0002
     10 C         142.4215  142.9369  159.6127 C.ar    1  UNL1        0.0015
     11 C         143.8047  142.3658  159.7147 C.ar    1  UNL1        0.0174
     12 C         144.5072  142.3339  161.0398 C.ar    1  UNL1        0.0015
     13 C         143.8263  142.8732  162.2627 C.ar    1  UNL1        0.0001
     14 C         142.4430  143.4443  162.1606 C.ar    1  UNL1        0.0030
     15 C         141.7622  143.9836  163.3836 C.ar    1  UNL1        0.0369
     16 C         138.4046  144.4933  164.9692 C.3     1  UNL1        0.2525
     17 O         139.6981  145.0940  164.5045 O.3     1  UNL1       -0.4714
     18 C         146.9243  141.9514  155.4748 C.ar    1  UNL1        0.0308
     19 C         148.3888  141.7761  155.7474 C.ar    1  UNL1        0.0138
     20 C         149.3935  142.0915  154.6792 C.ar    1  UNL1        0.0578
     21 CL        150.8582  141.9163  154.9519 Cl      1  UNL1       -0.0822
     22 C         148.9337  142.5822  153.3384 C.ar    1  UNL1        0.0123
     23 C         147.4692  142.7574  153.0657 C.ar    1  UNL1        0.0123
     24 C         146.4645  142.4420  154.1339 C.ar    1  UNL1        0.0592
     25 CL        144.9999  142.6173  153.8612 Cl      1  UNL1       -0.0822
     26 C         143.3161  139.4252  158.3866 C.3     1  UNL1        0.1274
     27 C         142.6977  138.4494  157.4297 C.3     1  UNL1        0.0312
     28 C         142.9893  139.3513  159.8487 C.ar    1  UNL1       -0.0001
     29 C         144.0273  138.8854  160.8264 C.ar    1  UNL1       -0.0023
     30 C         143.7007  138.8114  162.2886 C.ar    1  UNL1        0.0042
     31 C         142.3362  139.2033  162.7730 C.ar    1  UNL1        0.0533
     32 C         141.2983  139.6692  161.7954 C.ar    1  UNL1        0.0042
     33 C         141.6249  139.7432  160.3332 C.ar    1  UNL1       -0.0023
     34 C         142.0096  139.1293  164.2351 C.2     1  UNL1        0.2459
     35 O         142.6824  138.1074  165.1031 O.2     1  UNL1       -0.2701
     36 N         141.0103  140.0771  164.8293 N.am    1  UNL1       -0.3005
     37 H         140.5688  140.7478  164.2597 H       1  UNL1        0.1498
     38 C         140.6838  140.0032  166.2915 C.3     1  UNL1        0.0956
     39 C         139.2532  139.9405  166.7382 C.3     1  UNL1        0.0629
     40 C         138.3344  138.9007  166.1686 C.2     1  UNL1        0.0520
     41 O         138.4980  138.4534  164.7462 O.co2   1  UNL1       -0.5491
     42 O         137.2520  138.3080  167.0213 O.co2   1  UNL1       -0.5491
@<TRIPOS>UNITY_ATOM_ATTR
41 1
charge -1
@<TRIPOS>BOND
     1    16    17    1
     2    17     6    1
     3     6     7   ar
     4     7     8   ar
     5     8     9   ar
     6     9    10   ar
     7    10    11   ar
     8    11     1    1
     9     1     2   ar
    10     2     3   ar
    11     3    18    1
    12    18    19   ar
    13    19    20   ar
    14    20    21    1
    15    20    22   ar
    16    22    23   ar
    17    23    24   ar
    18    24    25    1
    19     3     4   ar
    20     4     5   ar
    21     5    26    1
    22    26    27    1
    23    26    28    1
    24    28    29   ar
    25    29    30   ar
    26    30    31   ar
    27    31    34    1
    28    34    35    2
    29    34    36   am
    30    36    38    1
    31    38    39    1
    32    39    40    1
    33    40    41   ar
    34    40    42   ar
    35    31    32   ar
    36    32    33   ar
    37    11    12   ar
    38    12    13   ar
    39    13    14   ar
    40    14    15   ar
    41    15     6   ar
    42    14     9   ar
    43     5     1   ar
    44    33    28   ar
    45    24    18   ar
    46    36    37    1
@<TRIPOS>MOLECULE
*****
 42 46 0 0 0
SMALL
GASTEIGER

@<TRIPOS>ATOM
      1 C         143.2118  141.4888  159.8406 C.ar    1  UNL1        0.0797
      2 C         144.2015  140.9262  158.8638 C.ar    1  UNL1        0.0396
      3 C         144.5628  142.0112  157.8931 C.ar    1  UNL1        0.1032
      4 N         143.7963  143.2443  158.2699 N.ar    1  UNL1       -0.1690
      5 N         142.9614  142.9215  159.4735 N.ar    1  UNL1       -0.2487
      6 C         139.3057  137.9821  164.2785 C.ar    1  UNL1        0.1387
      7 C         138.5441  138.1760  163.0009 C.ar    1  UNL1        0.0369
      8 C         139.1730  138.9161  161.8578 C.ar    1  UNL1        0.0031
      9 C         140.5635  139.4623  161.9923 C.ar    1  UNL1        0.0002
     10 C         141.1924  140.2025  160.8492 C.ar    1  UNL1        0.0015
     11 C         142.5829  140.7487  160.9837 C.ar    1  UNL1        0.0174
     12 C         143.3446  140.5547  162.2613 C.ar    1  UNL1        0.0015
     13 C         142.7157  139.8146  163.4044 C.ar    1  UNL1        0.0001
     14 C         141.3251  139.2684  163.2699 C.ar    1  UNL1        0.0030
     15 C         140.6962  138.5283  164.4130 C.ar    1  UNL1        0.0369
     16 C         137.9305  137.9949  166.4827 C.3     1  UNL1        0.2525
     17 O         138.6768  137.2419  165.4216 O.3     1  UNL1       -0.4714
     18 C         145.5220  141.8852  156.7469 C.ar    1  UNL1        0.0308
     19 C         145.1073  141.1664  155.4974 C.ar    1  UNL1        0.0138
     20 C         146.0666  141.0405  154.3511 C.ar    1  UNL1        0.0578
     21 CL        145.6520  140.3216  153.1015 Cl      1  UNL1       -0.0822
     22 C         147.4407  141.6333  154.4544 C.ar    1  UNL1        0.0123
     23 C         147.8554  142.3521  155.7040 C.ar    1  UNL1        0.0123
     24 C         146.8960  142.4780  156.8502 C.ar    1  UNL1        0.0592
     25 CL        147.3107  143.1968  158.0997 Cl      1  UNL1       -0.0822
     26 C         142.0381  143.8655  160.1850 C.3     1  UNL1        0.1274
     27 C         141.4458  145.0317  159.4504 C.3     1  UNL1        0.0312
     28 C         141.7071  143.6437  161.6311 C.ar    1  UNL1       -0.0001
     29 C         142.7490  143.8809  162.6839 C.ar    1  UNL1       -0.0023
     30 C         142.4182  143.6591  164.1300 C.ar    1  UNL1        0.0042
     31 C         141.0453  143.2000  164.5233 C.ar    1  UNL1        0.0533
     32 C         140.0035  142.9628  163.4706 C.ar    1  UNL1        0.0042
     33 C         140.3343  143.1846  162.0245 C.ar    1  UNL1       -0.0023
     34 C         140.7144  142.9782  165.9695 C.2     1  UNL1        0.2459
     35 O         139.5261  143.6603  166.5802 O.2     1  UNL1       -0.2701
     36 N         141.5718  142.0743  166.8049 N.am    1  UNL1       -0.3005
     37 H         142.3517  141.6267  166.4041 H       1  UNL1        0.1498
     38 C         141.2409  141.8525  168.2511 C.3     1  UNL1        0.0956
     39 C         141.4469  142.9564  169.2455 C.3     1  UNL1        0.0629
     40 C         140.2991  143.4334  170.0851 C.2     1  UNL1        0.0520
     41 O         139.3678  142.4409  170.7157 O.co2   1  UNL1       -0.5491
     42 O         140.0825  144.9029  170.2942 O.co2   1  UNL1       -0.5491
@<TRIPOS>UNITY_ATOM_ATTR
41 1
charge -1
@<TRIPOS>BOND
     1    16    17    1
     2    17     6    1
     3     6     7   ar
     4     7     8   ar
     5     8     9   ar
     6     9    10   ar
     7    10    11   ar
     8    11     1    1
     9     1     2   ar
    10     2     3   ar
    11     3    18    1
    12    18    19   ar
    13    19    20   ar
    14    20    21    1
    15    20    22   ar
    16    22    23   ar
    17    23    24   ar
    18    24    25    1
    19     3     4   ar
    20     4     5   ar
    21     5    26    1
    22    26    27    1
    23    26    28    1
    24    28    29   ar
    25    29    30   ar
    26    30    31   ar
    27    31    34    1
    28    34    35    2
    29    34    36   am
    30    36    38    1
    31    38    39    1
    32    39    40    1
    33    40    41   ar
    34    40    42   ar
    35    31    32   ar
    36    32    33   ar
    37    11    12   ar
    38    12    13   ar
    39    13    14   ar
    40    14    15   ar
    41    15     6   ar
    42    14     9   ar
    43     5     1   ar
    44    33    28   ar
    45    24    18   ar
    46    36    37    1
@<TRIPOS>MOLECULE
*****
 42 46 0 0 0
SMALL
GASTEIGER

@<TRIPOS>ATOM
      1 C         144.4306  141.9047  158.6298 C.ar    1  UNL1        0.0797
      2 C         145.4543  142.6437  157.8200 C.ar    1  UNL1        0.0396
      3 C         145.8772  141.7569  156.6865 C.ar    1  UNL1        0.1032
      4 N         145.1148  140.4697  156.7958 N.ar    1  UNL1       -0.1690
      5 N         144.2207  140.5610  157.9968 N.ar    1  UNL1       -0.2487
      6 C         140.2527  144.4691  163.4484 C.ar    1  UNL1        0.1387
      7 C         139.5364  144.4623  162.1305 C.ar    1  UNL1        0.0369
      8 C         140.2287  143.9481  160.9032 C.ar    1  UNL1        0.0031
      9 C         141.6373  143.4406  160.9938 C.ar    1  UNL1        0.0002
     10 C         142.3297  142.9264  159.7665 C.ar    1  UNL1        0.0015
     11 C         143.7383  142.4189  159.8571 C.ar    1  UNL1        0.0174
     12 C         144.4547  142.4257  161.1750 C.ar    1  UNL1        0.0015
     13 C         143.7623  142.9400  162.4023 C.ar    1  UNL1        0.0001
     14 C         142.3536  143.4475  162.3117 C.ar    1  UNL1        0.0030
     15 C         141.6613  143.9617  163.5390 C.ar    1  UNL1        0.0369
     16 C         138.1793  144.5055  165.0135 C.3     1  UNL1        0.2525
     17 O         139.5604  144.9834  164.6757 O.3     1  UNL1       -0.4714
     18 C         146.8853  142.0974  155.6294 C.ar    1  UNL1        0.0308
     19 C         148.3221  141.7057  155.8093 C.ar    1  UNL1        0.0138
     20 C         149.3302  142.0462  154.7521 C.ar    1  UNL1        0.0578
     21 CL        150.7670  141.6546  154.9319 Cl      1  UNL1       -0.0822
     22 C         148.9016  142.7785  153.5151 C.ar    1  UNL1        0.0123
     23 C         147.4649  143.1701  153.3352 C.ar    1  UNL1        0.0123
     24 C         146.4568  142.8296  154.3924 C.ar    1  UNL1        0.0592
     25 CL        145.0200  143.2213  154.2126 Cl      1  UNL1       -0.0822
     26 C         143.2818  139.4958  158.4800 C.3     1  UNL1        0.1274
     27 C         142.5841  138.6070  157.4933 C.3     1  UNL1        0.0312
     28 C         143.0403  139.3192  159.9499 C.ar    1  UNL1       -0.0001
     29 C         144.1495  138.8423  160.8401 C.ar    1  UNL1       -0.0023
     30 C         143.9081  138.6656  162.3100 C.ar    1  UNL1        0.0042
     31 C         142.5575  138.9658  162.8896 C.ar    1  UNL1        0.0533
     32 C         141.4484  139.4426  161.9994 C.ar    1  UNL1        0.0042
     33 C         141.6898  139.6193  160.5296 C.ar    1  UNL1       -0.0023
     34 C         142.3162  138.7891  164.3594 C.2     1  UNL1        0.2459
     35 O         141.1688  137.9481  164.8354 O.2     1  UNL1       -0.2701
     36 N         143.2222  139.4533  165.3534 N.am    1  UNL1       -0.3005
     37 H         143.9752  140.0053  165.0411 H       1  UNL1        0.1498
     38 C         142.9808  139.2767  166.8233 C.3     1  UNL1        0.0956
     39 C         142.4905  140.4305  167.6469 C.3     1  UNL1        0.0629
     40 C         143.0933  141.7919  167.4644 C.2     1  UNL1        0.0520
     41 O         143.4341  142.2830  166.0887 O.co2   1  UNL1       -0.5491
     42 O         143.3552  142.6623  168.6576 O.co2   1  UNL1       -0.5491
@<TRIPOS>UNITY_ATOM_ATTR
41 1
charge -1
@<TRIPOS>BOND
     1    16    17    1
     2    17     6    1
     3     6     7   ar
     4     7     8   ar
     5     8     9   ar
     6     9    10   ar
     7    10    11   ar
     8    11     1    1
     9     1     2   ar
    10     2     3   ar
    11     3    18    1
    12    18    19   ar
    13    19    20   ar
    14    20    21    1
    15    20    22   ar
    16    22    23   ar
    17    23    24   ar
    18    24    25    1
    19     3     4   ar
    20     4     5   ar
    21     5    26    1
    22    26    27    1
    23    26    28    1
    24    28    29   ar
    25    29    30   ar
    26    30    31   ar
    27    31    34    1
    28    34    35    2
    29    34    36   am
    30    36    38    1
    31    38    39    1
    32    39    40    1
    33    40    41   ar
    34    40    42   ar
    35    31    32   ar
    36    32    33   ar
    37    11    12   ar
    38    12    13   ar
    39    13    14   ar
    40    14    15   ar
    41    15     6   ar
    42    14     9   ar
    43     5     1   ar
    44    33    28   ar
    45    24    18   ar
    46    36    37    1
@<TRIPOS>MOLECULE
*****
 42 46 0 0 0
SMALL
GASTEIGER

@<TRIPOS>ATOM
      1 C         142.1432  137.7720  157.8639 C.ar    1  UNL1        0.0797
      2 C         142.7843  136.6016  157.1790 C.ar    1  UNL1        0.0396
      3 C         141.7649  135.9807  156.2704 C.ar    1  UNL1        0.1032
      4 N         140.4938  136.7675  156.3938 N.ar    1  UNL1       -0.1690
      5 N         140.7275  137.8746  157.3786 N.ar    1  UNL1       -0.2487
      6 C         144.9685  140.9530  163.2628 C.ar    1  UNL1        0.1387
      7 C         144.4997  139.5921  163.6848 C.ar    1  UNL1        0.0369
      8 C         143.8409  138.6837  162.6894 C.ar    1  UNL1        0.0031
      9 C         143.6509  139.1362  161.2721 C.ar    1  UNL1        0.0002
     10 C         142.9920  138.2279  160.2767 C.ar    1  UNL1        0.0015
     11 C         142.8020  138.6804  158.8593 C.ar    1  UNL1        0.0174
     12 C         143.2708  140.0414  158.4372 C.ar    1  UNL1        0.0015
     13 C         143.9296  140.9498  159.4326 C.ar    1  UNL1        0.0001
     14 C         144.1196  140.4972  160.8501 C.ar    1  UNL1        0.0030
     15 C         144.7784  141.4055  161.8454 C.ar    1  UNL1        0.0369
     16 C         144.8546  142.9943  164.8660 C.3     1  UNL1        0.2525
     17 O         145.6273  141.8614  164.2582 O.3     1  UNL1       -0.4714
     18 C         141.9791  134.7835  155.3927 C.ar    1  UNL1        0.0308
     19 C         142.2090  133.4345  156.0071 C.ar    1  UNL1        0.0138
     20 C         142.4231  132.2372  155.1292 C.ar    1  UNL1        0.0578
     21 CL        142.6531  130.8882  155.7436 Cl      1  UNL1       -0.0822
     22 C         142.4073  132.3889  153.6370 C.ar    1  UNL1        0.0123
     23 C         142.1773  133.7378  153.0226 C.ar    1  UNL1        0.0123
     24 C         141.9632  134.9351  153.9004 C.ar    1  UNL1        0.0592
     25 CL        141.7333  136.2840  153.2860 Cl      1  UNL1       -0.0822
     26 C         139.7222  138.9035  157.8034 C.3     1  UNL1        0.1274
     27 C         138.8325  139.5491  156.7827 C.3     1  UNL1        0.0312
     28 C         139.6064  139.2869  159.2490 C.ar    1  UNL1       -0.0001
     29 C         139.8775  140.6997  159.6741 C.ar    1  UNL1       -0.0023
     30 C         139.7617  141.0833  161.1196 C.ar    1  UNL1        0.0042
     31 C         139.3748  140.0540  162.1400 C.ar    1  UNL1        0.0533
     32 C         139.1038  138.6413  161.7149 C.ar    1  UNL1        0.0042
     33 C         139.2196  138.2577  160.2694 C.ar    1  UNL1       -0.0023
     34 C         139.2591  140.4376  163.5854 C.2     1  UNL1        0.2459
     35 O         138.3614  141.5687  163.9917 O.2     1  UNL1       -0.2701
     36 N         140.0409  139.6901  164.6247 N.am    1  UNL1       -0.3005
     37 H         140.6300  138.9478  164.3581 H       1  UNL1        0.1498
     38 C         139.9251  140.0737  166.0702 C.3     1  UNL1        0.0956
     39 C         138.8155  139.5119  166.9087 C.3     1  UNL1        0.0629
     40 C         138.1264  138.2467  166.4908 C.2     1  UNL1        0.0520
     41 O         136.8627  137.8193  167.1765 O.co2   1  UNL1       -0.5491
     42 O         138.7010  137.4090  165.3872 O.co2   1  UNL1       -0.5491
@<TRIPOS>UNITY_ATOM_ATTR
41 1
charge -1
@<TRIPOS>BOND
     1    16    17    1
     2    17     6    1
     3     6     7   ar
     4     7     8   ar
     5     8     9   ar
     6     9    10   ar
     7    10    11   ar
     8    11     1    1
     9     1     2   ar
    10     2     3   ar
    11     3    18    1
    12    18    19   ar
    13    19    20   ar
    14    20    21    1
    15    20    22   ar
    16    22    23   ar
    17    23    24   ar
    18    24    25    1
    19     3     4   ar
    20     4     5   ar
    21     5    26    1
    22    26    27    1
    23    26    28    1
    24    28    29   ar
    25    29    30   ar
    26    30    31   ar
    27    31    34    1
    28    34    35    2
    29    34    36   am
    30    36    38    1
    31    38    39    1
    32    39    40    1
    33    40    41   ar
    34    40    42   ar
    35    31    32   ar
    36    32    33   ar
    37    11    12   ar
    38    12    13   ar
    39    13    14   ar
    40    14    15   ar
    41    15     6   ar
    42    14     9   ar
    43     5     1   ar
    44    33    28   ar
    45    24    18   ar
    46    36    37    1
@<TRIPOS>MOLECULE
*****
 42 46 0 0 0
SMALL
GASTEIGER

@<TRIPOS>ATOM
      1 C         140.8456  141.8552  164.2509 C.ar    1  UNL1        0.0797
      2 C         140.5630  141.1191  165.5270 C.ar    1  UNL1        0.0396
      3 C         141.4464  141.6896  166.5966 C.ar    1  UNL1        0.1032
      4 N         142.2750  142.7783  165.9816 N.ar    1  UNL1       -0.1690
      5 N         141.9037  142.8807  164.5319 N.ar    1  UNL1       -0.2487
      6 C         138.7937  139.8752  157.9964 C.ar    1  UNL1        0.1387
      7 C         140.0401  139.1260  158.3643 C.ar    1  UNL1        0.0369
      8 C         140.6997  139.3722  159.6888 C.ar    1  UNL1        0.0031
      9 C         140.1130  140.3675  160.6453 C.ar    1  UNL1        0.0002
     10 C         140.7727  140.6137  161.9698 C.ar    1  UNL1        0.0015
     11 C         140.1860  141.6090  162.9264 C.ar    1  UNL1        0.0174
     12 C         138.9396  142.3582  162.5585 C.ar    1  UNL1        0.0015
     13 C         138.2799  142.1120  161.2340 C.ar    1  UNL1        0.0001
     14 C         138.8667  141.1166  160.2774 C.ar    1  UNL1        0.0030
     15 C         138.2071  140.8705  158.9529 C.ar    1  UNL1        0.0369
     16 C         138.7021  140.2411  155.4258 C.3     1  UNL1        0.2525
     17 O         138.1341  139.6290  156.6719 O.3     1  UNL1       -0.4714
     18 C         141.4931  141.2489  168.0296 C.ar    1  UNL1        0.0308
     19 C         142.1249  139.9374  168.3907 C.ar    1  UNL1        0.0138
     20 C         142.1716  139.4967  169.8238 C.ar    1  UNL1        0.0578
     21 CL        142.8035  138.1851  170.1850 Cl      1  UNL1       -0.0822
     22 C         141.5863  140.3677  170.8957 C.ar    1  UNL1        0.0123
     23 C         140.9544  141.6792  170.5346 C.ar    1  UNL1        0.0123
     24 C         140.9078  142.1199  169.1015 C.ar    1  UNL1        0.0592
     25 CL        140.2759  143.4315  168.7404 Cl      1  UNL1       -0.0822
     26 C         142.4879  143.8399  163.5377 C.3     1  UNL1        0.1274
     27 C         142.6022  145.2963  163.8785 C.3     1  UNL1        0.0312
     28 C         142.9579  143.3430  162.2027 C.ar    1  UNL1       -0.0001
     29 C         144.1177  142.3951  162.1213 C.ar    1  UNL1       -0.0023
     30 C         144.5878  141.8982  160.7863 C.ar    1  UNL1        0.0042
     31 C         143.8981  142.3491  159.5329 C.ar    1  UNL1        0.0533
     32 C         142.7384  143.2970  159.6144 C.ar    1  UNL1        0.0042
     33 C         142.2683  143.7939  160.9493 C.ar    1  UNL1       -0.0023
     34 C         144.3682  141.8522  158.1980 C.2     1  UNL1        0.2459
     35 O         144.5278  140.3798  157.9595 O.2     1  UNL1       -0.2701
     36 N         144.6787  142.8275  157.1015 N.am    1  UNL1       -0.3005
     37 H         144.5739  143.7938  157.2580 H       1  UNL1        0.1498
     38 C         145.1488  142.3306  155.7665 C.3     1  UNL1        0.0956
     39 C         146.5451  142.6266  155.3053 C.3     1  UNL1        0.0629
     40 C         147.6967  142.4732  156.2541 C.2     1  UNL1        0.0520
     41 O         148.9201  141.7147  155.8324 O.co2   1  UNL1       -0.5491
     42 O         147.6250  143.0784  157.6248 O.co2   1  UNL1       -0.5491
@<TRIPOS>UNITY_ATOM_ATTR
41 1
charge -1
@<TRIPOS>BOND
     1    16    17    1
     2    17     6    1
     3     6     7   ar
     4     7     8   ar
     5     8     9   ar
     6     9    10   ar
     7    10    11   ar
     8    11     1    1
     9     1     2   ar
    10     2     3   ar
    11     3    18    1
    12    18    19   ar
    13    19    20   ar
    14    20    21    1
    15    20    22   ar
    16    22    23   ar
    17    23    24   ar
    18    24    25    1
    19     3     4   ar
    20     4     5   ar
    21     5    26    1
    22    26    27    1
    23    26    28    1
    24    28    29   ar
    25    29    30   ar
    26    30    31   ar
    27    31    34    1
    28    34    35    2
    29    34    36   am
    30    36    38    1
    31    38    39    1
    32    39    40    1
    33    40    41   ar
    34    40    42   ar
    35    31    32   ar
    36    32    33   ar
    37    11    12   ar
    38    12    13   ar
    39    13    14   ar
    40    14    15   ar
    41    15     6   ar
    42    14     9   ar
    43     5     1   ar
    44    33    28   ar
    45    24    18   ar
    46    36    37    1
