@<TRIPOS>MOLECULE
*****
 42 47 0 0 0
SMALL
GASTEIGER

@<TRIPOS>ATOM
      1 N         138.4711  139.5940  161.7535 N.3     1  UNL1       -0.2702
      2 C         137.8265  140.1400  160.5141 C.3     1  UNL1        0.0724
      3 C         138.7625  139.9098  159.3648 C.3     1  UNL1        0.0203
      4 C         139.9857  139.2215  159.8940 C.3     1  UNL1        0.0341
      5 C         141.3202  138.6539  159.5107 C.3     1  UNL1        0.0745
      6 C         141.9649  138.1078  160.7502 C.3     1  UNL1        0.0210
      7 C         141.0288  138.3380  161.8995 C.3     1  UNL1        0.0177
      8 C         139.8056  139.0263  161.3703 C.3     1  UNL1        0.0594
      9 N         141.9070  138.6355  158.1304 N.pl3   1  UNL1       -0.2899
     10 H         142.1603  139.4798  157.6919 H       1  UNL1        0.1511
     11 C         142.1079  137.3307  157.4182 C.ar    1  UNL1        0.2890
     12 N         141.2186  136.7619  156.3525 N.ar    1  UNL1       -0.1948
     13 C         141.7944  135.4453  155.9222 C.ar    1  UNL1        0.1202
     14 C         141.3458  134.4378  154.9056 C.ar    1  UNL1        0.0224
     15 C         142.1424  133.1855  154.6886 C.ar    1  UNL1        0.0029
     16 C         143.3876  132.9407  155.4883 C.ar    1  UNL1        0.0171
     17 C         143.8362  133.9482  156.5050 C.ar    1  UNL1        0.0403
     18 C         143.0397  135.2005  156.7219 C.ar    1  UNL1        0.1660
     19 O         143.2333  136.3658  157.6464 O.2     1  UNL1       -0.4239
     20 C         144.1842  131.6883  155.2713 C.2     1  UNL1        0.0730
     21 O         143.7661  130.7067  154.2170 O.co2   1  UNL1       -0.5446
     22 O         145.3989  131.4176  156.1086 O.co2   1  UNL1       -0.5446
     23 C         137.8843  139.6123  163.1339 C.3     1  UNL1        0.0993
     24 C         139.4573  140.1076  166.7437 C.ar    1  UNL1        0.1411
     25 C         138.6789  139.5168  165.6056 C.ar    1  UNL1        0.0342
     26 C         138.6627  140.2031  164.2719 C.ar    1  UNL1       -0.0001
     27 C         139.4250  141.4801  164.0762 C.ar    1  UNL1        0.0342
     28 C         140.2033  142.0708  165.2142 C.ar    1  UNL1        0.1411
     29 C         140.2195  141.3846  166.5480 C.ar    1  UNL1        0.0679
     30 C         140.9978  141.9753  167.6860 C.ar    1  UNL1        0.0060
     31 C         140.3373  142.9402  168.6255 C.ar    1  UNL1        0.0025
     32 C         141.1157  143.5310  169.7636 C.ar    1  UNL1        0.0296
     33 C         142.5547  143.1568  169.9621 C.ar    1  UNL1        0.1401
     34 F         143.3330  143.7476  171.1001 F       1  UNL1       -0.2042
     35 C         143.2152  142.1920  169.0225 C.ar    1  UNL1        0.0296
     36 C         142.4369  141.6012  167.8845 C.ar    1  UNL1        0.0025
     37 O         139.4734  139.4214  168.0774 O.3     1  UNL1       -0.4754
     38 C         138.6228  140.3675  170.3426 C.3     1  UNL1        0.0512
     39 C         138.3567  139.6504  169.0523 C.3     1  UNL1        0.2055
     40 O         140.9655  143.3478  165.0185 O.3     1  UNL1       -0.4754
     41 C         140.2319  144.6196  164.7112 C.3     1  UNL1        0.2055
     42 C         138.8576  144.8460  165.2679 C.3     1  UNL1        0.0512
@<TRIPOS>UNITY_ATOM_ATTR
21 1
charge -1
@<TRIPOS>BOND
     1    38    39    1
     2    39    37    1
     3    37    24    1
     4    24    25   ar
     5    25    26   ar
     6    26    23    1
     7    23     1    1
     8     1     2    1
     9     2     3    1
    10     4     3    1
    11     4     5    1
    12     5     9    1
    13     9    11    1
    14    11    12   ar
    15    12    13   ar
    16    13    14   ar
    17    14    15   ar
    18    15    16   ar
    19    16    20    1
    20    20    21   ar
    21    20    22   ar
    22    16    17   ar
    23    17    18   ar
    24    18    19   ar
    25     5     6    1
    26     6     7    1
    27     8     7    1
    28    26    27   ar
    29    27    28   ar
    30    28    40    1
    31    40    41    1
    32    41    42    1
    33    28    29   ar
    34    29    30    1
    35    30    31   ar
    36    31    32   ar
    37    32    33   ar
    38    33    34    1
    39    33    35   ar
    40    35    36   ar
    41    29    24   ar
    42    36    30   ar
    43     8     1    1
    44     8     4    1
    45    19    11   ar
    46    18    13   ar
    47     9    10    1
@<TRIPOS>MOLECULE
*****
 42 47 0 0 0
SMALL
GASTEIGER

@<TRIPOS>ATOM
      1 N         140.3218  141.0767  159.3940 N.3     1  UNL1       -0.2702
      2 C         140.3861  139.5951  159.1692 C.3     1  UNL1        0.0724
      3 C         139.3466  139.2355  158.1493 C.3     1  UNL1        0.0203
      4 C         138.6399  140.4949  157.7439 C.3     1  UNL1        0.0341
      5 C         137.5607  141.0510  156.8629 C.3     1  UNL1        0.0745
      6 C         137.4964  142.5327  157.0878 C.3     1  UNL1        0.0210
      7 C         138.5358  142.8923  158.1077 C.3     1  UNL1        0.0177
      8 C         139.2426  141.6329  158.5132 C.3     1  UNL1        0.0594
      9 N         136.6973  140.2637  155.9223 N.pl3   1  UNL1       -0.2899
     10 H         137.1112  139.6985  155.2305 H       1  UNL1        0.1511
     11 C         135.2034  140.3374  156.0357 C.ar    1  UNL1        0.2890
     12 N         134.2978  141.1994  155.2072 N.ar    1  UNL1       -0.1948
     13 C         132.8875  140.9568  155.6570 C.ar    1  UNL1        0.1202
     14 C         131.5767  141.5266  155.2019 C.ar    1  UNL1        0.0224
     15 C         130.3001  141.0844  155.8534 C.ar    1  UNL1        0.0029
     16 C         130.3342  140.0724  156.9601 C.ar    1  UNL1        0.0171
     17 C         131.6449  139.5025  157.4151 C.ar    1  UNL1        0.0403
     18 C         132.9216  139.9447  156.7636 C.ar    1  UNL1        0.1660
     19 O         134.3529  139.5619  156.9977 O.2     1  UNL1       -0.4239
     20 C         129.0574  139.6302  157.6116 C.2     1  UNL1        0.0730
     21 O         129.0432  139.2741  159.0686 O.co2   1  UNL1       -0.5446
     22 O         127.7950  139.5441  156.8061 O.co2   1  UNL1       -0.5446
     23 C         141.1851  141.8641  160.3347 C.3     1  UNL1        0.0993
     24 C         139.4543  142.0298  163.9022 C.ar    1  UNL1        0.1411
     25 C         139.6619  142.1428  162.4208 C.ar    1  UNL1        0.0342
     26 C         140.9774  141.7511  161.8159 C.ar    1  UNL1       -0.0001
     27 C         142.0853  141.2464  162.6923 C.ar    1  UNL1        0.0342
     28 C         141.8777  141.1334  164.1735 C.ar    1  UNL1        0.1411
     29 C         140.5621  141.5251  164.7784 C.ar    1  UNL1        0.0679
     30 C         140.3545  141.4121  166.2596 C.ar    1  UNL1        0.0060
     31 C         140.7346  142.5506  167.1593 C.ar    1  UNL1        0.0025
     32 C         140.5269  142.4375  168.6406 C.ar    1  UNL1        0.0296
     33 C         139.9391  141.1861  169.2222 C.ar    1  UNL1        0.1401
     34 F         139.7314  141.0731  170.7034 F       1  UNL1       -0.2042
     35 C         139.5589  140.0476  168.3225 C.ar    1  UNL1        0.0296
     36 C         139.7666  140.1606  166.8413 C.ar    1  UNL1        0.0025
     37 O         138.1387  142.4214  164.5071 O.3     1  UNL1       -0.4754
     38 C         138.7339  144.8576  165.1858 C.3     1  UNL1        0.0512
     39 C         137.7625  143.8697  164.6110 C.3     1  UNL1        0.2055
     40 O         142.9855  140.6288  165.0498 O.3     1  UNL1       -0.4754
     41 C         143.3099  139.1646  165.0802 C.3     1  UNL1        0.2055
     42 C         143.3989  138.4432  166.3923 C.3     1  UNL1        0.0512
@<TRIPOS>UNITY_ATOM_ATTR
21 1
charge -1
@<TRIPOS>BOND
     1    38    39    1
     2    39    37    1
     3    37    24    1
     4    24    25   ar
     5    25    26   ar
     6    26    23    1
     7    23     1    1
     8     1     2    1
     9     2     3    1
    10     4     3    1
    11     4     5    1
    12     5     9    1
    13     9    11    1
    14    11    12   ar
    15    12    13   ar
    16    13    14   ar
    17    14    15   ar
    18    15    16   ar
    19    16    20    1
    20    20    21   ar
    21    20    22   ar
    22    16    17   ar
    23    17    18   ar
    24    18    19   ar
    25     5     6    1
    26     6     7    1
    27     8     7    1
    28    26    27   ar
    29    27    28   ar
    30    28    40    1
    31    40    41    1
    32    41    42    1
    33    28    29   ar
    34    29    30    1
    35    30    31   ar
    36    31    32   ar
    37    32    33   ar
    38    33    34    1
    39    33    35   ar
    40    35    36   ar
    41    29    24   ar
    42    36    30   ar
    43     8     1    1
    44     8     4    1
    45    19    11   ar
    46    18    13   ar
    47     9    10    1
@<TRIPOS>MOLECULE
*****
 42 47 0 0 0
SMALL
GASTEIGER

@<TRIPOS>ATOM
      1 N         140.3664  141.1211  159.3986 N.3     1  UNL1       -0.2702
      2 C         140.4350  139.6392  159.1771 C.3     1  UNL1        0.0724
      3 C         139.3999  139.2750  158.1544 C.3     1  UNL1        0.0203
      4 C         138.6916  140.5319  157.7439 C.3     1  UNL1        0.0341
      5 C         137.6141  141.0836  156.8581 C.3     1  UNL1        0.0745
      6 C         137.5456  142.5656  157.0796 C.3     1  UNL1        0.0210
      7 C         138.5806  142.9298  158.1024 C.3     1  UNL1        0.0177
      8 C         139.2890  141.6729  158.5129 C.3     1  UNL1        0.0594
      9 N         136.7559  140.2923  155.9161 N.pl3   1  UNL1       -0.2899
     10 H         137.1734  139.7321  155.2225 H       1  UNL1        0.1511
     11 C         135.2616  140.3546  156.0310 C.ar    1  UNL1        0.2890
     12 N         134.3520  141.2404  155.2323 N.ar    1  UNL1       -0.1948
     13 C         132.9428  140.9752  155.6724 C.ar    1  UNL1        0.1202
     14 C         131.6294  141.5540  155.2365 C.ar    1  UNL1        0.0224
     15 C         130.3546  141.0830  155.8713 C.ar    1  UNL1        0.0029
     16 C         130.3932  140.0332  156.9420 C.ar    1  UNL1        0.0171
     17 C         131.7066  139.4544  157.3779 C.ar    1  UNL1        0.0403
     18 C         132.9813  139.9254  156.7431 C.ar    1  UNL1        0.1660
     19 O         134.4144  139.5419  156.9647 O.2     1  UNL1       -0.4239
     20 C         129.1183  139.5623  157.5768 C.2     1  UNL1        0.0730
     21 O         127.8016  139.8517  156.9193 O.co2   1  UNL1       -0.5446
     22 O         129.1603  138.8019  158.8691 O.co2   1  UNL1       -0.5446
     23 C         141.2246  141.9125  160.3406 C.3     1  UNL1        0.0993
     24 C         141.9336  141.2043  164.1807 C.ar    1  UNL1        0.1411
     25 C         142.1396  141.3223  162.6995 C.ar    1  UNL1        0.0342
     26 C         141.0187  141.7945  161.8217 C.ar    1  UNL1       -0.0001
     27 C         139.6918  142.1488  162.4250 C.ar    1  UNL1        0.0342
     28 C         139.4858  142.0309  163.9061 C.ar    1  UNL1        0.1411
     29 C         140.6067  141.5586  164.7839 C.ar    1  UNL1        0.0679
     30 C         140.4008  141.4406  166.2650 C.ar    1  UNL1        0.0060
     31 C         140.8327  142.5535  167.1733 C.ar    1  UNL1        0.0025
     32 C         140.6267  142.4355  168.6544 C.ar    1  UNL1        0.0296
     33 C         139.9888  141.2047  169.2272 C.ar    1  UNL1        0.1401
     34 F         139.7829  141.0867  170.7083 F       1  UNL1       -0.2042
     35 C         139.5569  140.0918  168.3189 C.ar    1  UNL1        0.0296
     36 C         139.7629  140.2098  166.8378 C.ar    1  UNL1        0.0025
     37 O         143.0544  140.7321  165.0585 O.3     1  UNL1       -0.4754
     38 C         143.1810  138.7642  166.7500 C.3     1  UNL1        0.0512
     39 C         143.2225  139.2679  165.3378 C.3     1  UNL1        0.2055
     40 O         138.1590  142.3852  164.5093 O.3     1  UNL1       -0.4754
     41 C         137.7753  143.8246  164.6849 C.3     1  UNL1        0.2055
     42 C         138.7969  144.8225  165.1437 C.3     1  UNL1        0.0512
@<TRIPOS>UNITY_ATOM_ATTR
21 1
charge -1
@<TRIPOS>BOND
     1    38    39    1
     2    39    37    1
     3    37    24    1
     4    24    25   ar
     5    25    26   ar
     6    26    23    1
     7    23     1    1
     8     1     2    1
     9     2     3    1
    10     4     3    1
    11     4     5    1
    12     5     9    1
    13     9    11    1
    14    11    12   ar
    15    12    13   ar
    16    13    14   ar
    17    14    15   ar
    18    15    16   ar
    19    16    20    1
    20    20    21   ar
    21    20    22   ar
    22    16    17   ar
    23    17    18   ar
    24    18    19   ar
    25     5     6    1
    26     6     7    1
    27     8     7    1
    28    26    27   ar
    29    27    28   ar
    30    28    40    1
    31    40    41    1
    32    41    42    1
    33    28    29   ar
    34    29    30    1
    35    30    31   ar
    36    31    32   ar
    37    32    33   ar
    38    33    34    1
    39    33    35   ar
    40    35    36   ar
    41    29    24   ar
    42    36    30   ar
    43     8     1    1
    44     8     4    1
    45    19    11   ar
    46    18    13   ar
    47     9    10    1
@<TRIPOS>MOLECULE
*****
 42 47 0 0 0
SMALL
GASTEIGER

@<TRIPOS>ATOM
      1 N         139.1187  139.6435  160.0354 N.3     1  UNL1       -0.2702
      2 C         138.7554  139.7346  158.5829 C.3     1  UNL1        0.0724
      3 C         139.8603  139.1041  157.7883 C.3     1  UNL1        0.0203
      4 C         140.9065  138.6233  158.7496 C.3     1  UNL1        0.0341
      5 C         142.2361  137.9365  158.8526 C.3     1  UNL1        0.0745
      6 C         142.5994  137.8454  160.3052 C.3     1  UNL1        0.0210
      7 C         141.4944  138.4759  161.0999 C.3     1  UNL1        0.0177
      8 C         140.4481  138.9567  160.1385 C.3     1  UNL1        0.0594
      9 N         143.0580  137.4297  157.7048 N.pl3   1  UNL1       -0.2899
     10 H         143.7447  138.0065  157.2987 H       1  UNL1        0.1511
     11 C         142.8335  136.0442  157.1757 C.ar    1  UNL1        0.2890
     12 N         141.9354  135.6713  156.0336 N.ar    1  UNL1       -0.1948
     13 C         142.0146  134.1849  155.8478 C.ar    1  UNL1        0.1202
     14 C         141.3466  133.2579  154.8759 C.ar    1  UNL1        0.0224
     15 C         141.6258  131.7852  154.9314 C.ar    1  UNL1        0.0029
     16 C         142.5729  131.2395  155.9586 C.ar    1  UNL1        0.0171
     17 C         143.2408  132.1665  156.9304 C.ar    1  UNL1        0.0403
     18 C         142.9616  133.6392  156.8750 C.ar    1  UNL1        0.1660
     19 O         143.4677  134.7883  157.6957 O.2     1  UNL1       -0.4239
     20 C         142.8520  129.7667  156.0140 C.2     1  UNL1        0.0730
     21 O         144.2580  129.2761  156.1943 O.co2   1  UNL1       -0.5446
     22 O         141.7252  128.7845  155.8891 O.co2   1  UNL1       -0.5446
     23 C         138.2968  140.1503  161.1833 C.3     1  UNL1        0.0993
     24 C         140.3688  142.2757  163.8177 C.ar    1  UNL1        0.1411
     25 C         139.6995  141.8661  162.5392 C.ar    1  UNL1        0.0342
     26 C         138.9660  140.5599  162.4617 C.ar    1  UNL1       -0.0001
     27 C         138.9019  139.6633  163.6626 C.ar    1  UNL1        0.0342
     28 C         139.5712  140.0730  164.9410 C.ar    1  UNL1        0.1411
     29 C         140.3046  141.3791  165.0185 C.ar    1  UNL1        0.0679
     30 C         140.9738  141.7888  166.2969 C.ar    1  UNL1        0.0060
     31 C         140.1646  142.3884  167.4084 C.ar    1  UNL1        0.0025
     32 C         140.8339  142.7980  168.6868 C.ar    1  UNL1        0.0296
     33 C         142.3125  142.6080  168.8536 C.ar    1  UNL1        0.1401
     34 F         142.9817  143.0176  170.1320 F       1  UNL1       -0.2042
     35 C         143.1217  142.0084  167.7421 C.ar    1  UNL1        0.0296
     36 C         142.4524  141.5988  166.4637 C.ar    1  UNL1        0.0025
     37 O         141.1022  143.5819  163.8952 O.3     1  UNL1       -0.4754
     38 C         138.9352  144.7557  164.7176 C.3     1  UNL1        0.0512
     39 C         140.3698  144.8312  164.2859 C.3     1  UNL1        0.2055
     40 O         139.5070  139.1764  166.1418 O.3     1  UNL1       -0.4754
     41 C         138.2292  139.0523  166.9177 C.3     1  UNL1        0.2055
     42 C         137.4887  137.7481  166.9394 C.3     1  UNL1        0.0512
@<TRIPOS>UNITY_ATOM_ATTR
21 1
charge -1
@<TRIPOS>BOND
     1    38    39    1
     2    39    37    1
     3    37    24    1
     4    24    25   ar
     5    25    26   ar
     6    26    23    1
     7    23     1    1
     8     1     2    1
     9     2     3    1
    10     4     3    1
    11     4     5    1
    12     5     9    1
    13     9    11    1
    14    11    12   ar
    15    12    13   ar
    16    13    14   ar
    17    14    15   ar
    18    15    16   ar
    19    16    20    1
    20    20    21   ar
    21    20    22   ar
    22    16    17   ar
    23    17    18   ar
    24    18    19   ar
    25     5     6    1
    26     6     7    1
    27     8     7    1
    28    26    27   ar
    29    27    28   ar
    30    28    40    1
    31    40    41    1
    32    41    42    1
    33    28    29   ar
    34    29    30    1
    35    30    31   ar
    36    31    32   ar
    37    32    33   ar
    38    33    34    1
    39    33    35   ar
    40    35    36   ar
    41    29    24   ar
    42    36    30   ar
    43     8     1    1
    44     8     4    1
    45    19    11   ar
    46    18    13   ar
    47     9    10    1
@<TRIPOS>MOLECULE
*****
 42 47 0 0 0
SMALL
GASTEIGER

@<TRIPOS>ATOM
      1 N         141.3099  139.2908  160.8785 N.3     1  UNL1       -0.2702
      2 C         142.6268  138.7899  161.3930 C.3     1  UNL1        0.0724
      3 C         143.2957  138.0261  160.2889 C.3     1  UNL1        0.0203
      4 C         142.3922  138.0549  159.0919 C.3     1  UNL1        0.0341
      5 C         142.2471  137.6007  157.6697 C.3     1  UNL1        0.0745
      6 C         140.9301  138.1016  157.1552 C.3     1  UNL1        0.0210
      7 C         140.2613  138.8654  158.2593 C.3     1  UNL1        0.0177
      8 C         141.1648  138.8366  159.4564 C.3     1  UNL1        0.0594
      9 N         143.2440  136.7882  156.8977 N.pl3   1  UNL1       -0.2899
     10 H         144.0683  137.2094  156.5625 H       1  UNL1        0.1511
     11 C         142.9849  135.3341  156.6363 C.ar    1  UNL1        0.2890
     12 N         143.7099  134.1821  157.2666 N.ar    1  UNL1       -0.1948
     13 C         143.1284  132.9126  156.7186 C.ar    1  UNL1        0.1202
     14 C         143.4462  131.4696  156.9768 C.ar    1  UNL1        0.0224
     15 C         142.6797  130.3940  156.2658 C.ar    1  UNL1        0.0029
     16 C         141.5953  130.7614  155.2967 C.ar    1  UNL1        0.0171
     17 C         141.2775  132.2044  155.0385 C.ar    1  UNL1        0.0403
     18 C         142.0441  133.2800  155.7494 C.ar    1  UNL1        0.1660
     19 O         141.9554  134.7765  155.6986 O.2     1  UNL1       -0.4239
     20 C         140.8288  129.6857  154.5857 C.2     1  UNL1        0.0730
     21 O         141.3400  129.1331  153.2883 O.co2   1  UNL1       -0.5446
     22 O         139.5511  129.1627  155.1722 O.co2   1  UNL1       -0.5446
     23 C         140.3130  140.1033  161.6505 C.3     1  UNL1        0.0993
     24 C         140.5764  140.2547  165.6075 C.ar    1  UNL1        0.1411
     25 C         140.2430  139.7731  164.2266 C.ar    1  UNL1        0.0342
     26 C         140.6464  140.5848  163.0314 C.ar    1  UNL1       -0.0001
     27 C         141.3832  141.8782  163.2172 C.ar    1  UNL1        0.0342
     28 C         141.7166  142.3597  164.5981 C.ar    1  UNL1        0.1411
     29 C         141.3132  141.5480  165.7933 C.ar    1  UNL1        0.0679
     30 C         141.6466  142.0295  167.1742 C.ar    1  UNL1        0.0060
     31 C         143.0274  141.8297  167.7252 C.ar    1  UNL1        0.0025
     32 C         143.3607  142.3112  169.1062 C.ar    1  UNL1        0.0296
     33 C         142.3134  142.9927  169.9360 C.ar    1  UNL1        0.1401
     34 F         142.6468  143.4742  171.3169 F       1  UNL1       -0.2042
     35 C         140.9327  143.1925  169.3850 C.ar    1  UNL1        0.0296
     36 C         140.5993  142.7110  168.0041 C.ar    1  UNL1        0.0025
     37 O         140.1730  139.4430  166.8027 O.3     1  UNL1       -0.4754
     38 C         137.7530  138.5090  166.9474 C.3     1  UNL1        0.0512
     39 C         138.7740  139.5369  167.3356 C.3     1  UNL1        0.2055
     40 O         142.4534  143.6530  164.7839 O.3     1  UNL1       -0.4754
     41 C         143.8509  143.8021  164.2594 C.3     1  UNL1        0.2055
     42 C         144.8927  142.7778  164.5990 C.3     1  UNL1        0.0512
@<TRIPOS>UNITY_ATOM_ATTR
21 1
charge -1
@<TRIPOS>BOND
     1    38    39    1
     2    39    37    1
     3    37    24    1
     4    24    25   ar
     5    25    26   ar
     6    26    23    1
     7    23     1    1
     8     1     2    1
     9     2     3    1
    10     4     3    1
    11     4     5    1
    12     5     9    1
    13     9    11    1
    14    11    12   ar
    15    12    13   ar
    16    13    14   ar
    17    14    15   ar
    18    15    16   ar
    19    16    20    1
    20    20    21   ar
    21    20    22   ar
    22    16    17   ar
    23    17    18   ar
    24    18    19   ar
    25     5     6    1
    26     6     7    1
    27     8     7    1
    28    26    27   ar
    29    27    28   ar
    30    28    40    1
    31    40    41    1
    32    41    42    1
    33    28    29   ar
    34    29    30    1
    35    30    31   ar
    36    31    32   ar
    37    32    33   ar
    38    33    34    1
    39    33    35   ar
    40    35    36   ar
    41    29    24   ar
    42    36    30   ar
    43     8     1    1
    44     8     4    1
    45    19    11   ar
    46    18    13   ar
    47     9    10    1
@<TRIPOS>MOLECULE
*****
 42 47 0 0 0
SMALL
GASTEIGER

@<TRIPOS>ATOM
      1 N         142.0429  144.6067  160.8448 N.3     1  UNL1       -0.2702
      2 C         140.8373  145.4983  160.8060 C.3     1  UNL1        0.0724
      3 C         140.2704  145.4512  159.4181 C.3     1  UNL1        0.0203
      4 C         141.1257  144.5305  158.5991 C.3     1  UNL1        0.0341
      5 C         141.3039  143.9323  157.2351 C.3     1  UNL1        0.0745
      6 C         142.5096  143.0407  157.2739 C.3     1  UNL1        0.0210
      7 C         143.0765  143.0878  158.6618 C.3     1  UNL1        0.0177
      8 C         142.2212  144.0085  159.4809 C.3     1  UNL1        0.0594
      9 N         140.4299  144.1818  156.0418 N.pl3   1  UNL1       -0.2899
     10 H         139.9759  143.4293  155.5982 H       1  UNL1        0.1511
     11 C         140.2477  145.5780  155.5245 C.ar    1  UNL1        0.2890
     12 N         140.6951  146.0880  154.1867 N.ar    1  UNL1       -0.1948
     13 C         140.3099  147.5344  154.0896 C.ar    1  UNL1        0.1202
     14 C         140.4948  148.5515  153.0027 C.ar    1  UNL1        0.0224
     15 C         139.9943  149.9525  153.1936 C.ar    1  UNL1        0.0029
     16 C         139.3088  150.3365  154.4713 C.ar    1  UNL1        0.0171
     17 C         139.1239  149.3194  155.5582 C.ar    1  UNL1        0.0403
     18 C         139.6245  147.9184  155.3673 C.ar    1  UNL1        0.1660
     19 O         139.5860  146.7092  156.2542 O.2     1  UNL1       -0.4239
     20 C         138.8082  151.7376  154.6622 C.2     1  UNL1        0.0730
     21 O         138.2037  152.4817  153.5085 O.co2   1  UNL1       -0.5446
     22 O         138.9121  152.3946  156.0066 O.co2   1  UNL1       -0.5446
     23 C         142.9170  144.3571  162.0381 C.3     1  UNL1        0.0993
     24 C         140.4183  143.5520  165.0144 C.ar    1  UNL1        0.1411
     25 C         140.9965  144.1748  163.7782 C.ar    1  UNL1        0.0342
     26 C         142.3388  143.7344  163.2741 C.ar    1  UNL1       -0.0001
     27 C         143.1029  142.6711  164.0061 C.ar    1  UNL1        0.0342
     28 C         142.5247  142.0484  165.2421 C.ar    1  UNL1        0.1411
     29 C         141.1824  142.4888  165.7462 C.ar    1  UNL1        0.0679
     30 C         140.6042  141.8661  166.9823 C.ar    1  UNL1        0.0060
     31 C         139.9303  140.5283  166.9032 C.ar    1  UNL1        0.0025
     32 C         139.3521  139.9056  168.1394 C.ar    1  UNL1        0.0296
     33 C         139.4478  140.6206  169.4545 C.ar    1  UNL1        0.1401
     34 F         138.8696  139.9979  170.6905 F       1  UNL1       -0.2042
     35 C         140.1217  141.9584  169.5335 C.ar    1  UNL1        0.0296
     36 C         140.6999  142.5811  168.2975 C.ar    1  UNL1        0.0025
     37 O         139.0759  143.9924  165.5185 O.3     1  UNL1       -0.4754
     38 C         137.6421  142.5086  163.9398 C.3     1  UNL1        0.0512
     39 C         137.8558  143.8031  164.6668 C.3     1  UNL1        0.2055
     40 O         143.2889  140.9852  165.9740 O.3     1  UNL1       -0.4754
     41 C         143.4320  139.6175  165.3749 C.3     1  UNL1        0.2055
     42 C         143.4010  138.4051  166.2575 C.3     1  UNL1        0.0512
@<TRIPOS>UNITY_ATOM_ATTR
21 1
charge -1
@<TRIPOS>BOND
     1    38    39    1
     2    39    37    1
     3    37    24    1
     4    24    25   ar
     5    25    26   ar
     6    26    23    1
     7    23     1    1
     8     1     2    1
     9     2     3    1
    10     4     3    1
    11     4     5    1
    12     5     9    1
    13     9    11    1
    14    11    12   ar
    15    12    13   ar
    16    13    14   ar
    17    14    15   ar
    18    15    16   ar
    19    16    20    1
    20    20    21   ar
    21    20    22   ar
    22    16    17   ar
    23    17    18   ar
    24    18    19   ar
    25     5     6    1
    26     6     7    1
    27     8     7    1
    28    26    27   ar
    29    27    28   ar
    30    28    40    1
    31    40    41    1
    32    41    42    1
    33    28    29   ar
    34    29    30    1
    35    30    31   ar
    36    31    32   ar
    37    32    33   ar
    38    33    34    1
    39    33    35   ar
    40    35    36   ar
    41    29    24   ar
    42    36    30   ar
    43     8     1    1
    44     8     4    1
    45    19    11   ar
    46    18    13   ar
    47     9    10    1
@<TRIPOS>MOLECULE
*****
 42 47 0 0 0
SMALL
GASTEIGER

@<TRIPOS>ATOM
      1 N         138.6829  141.9853  160.3506 N.3     1  UNL1       -0.2702
      2 C         139.0629  142.9450  159.2622 C.3     1  UNL1        0.0724
      3 C         139.6925  142.1592  158.1504 C.3     1  UNL1        0.0203
      4 C         139.7015  140.7139  158.5517 C.3     1  UNL1        0.0341
      5 C         140.0962  139.3350  158.1125 C.3     1  UNL1        0.0745
      6 C         139.7161  138.3753  159.2010 C.3     1  UNL1        0.0210
      7 C         139.0866  139.1611  160.3128 C.3     1  UNL1        0.0177
      8 C         139.0775  140.6065  159.9116 C.3     1  UNL1        0.0594
      9 N         140.7552  138.9783  156.8131 N.pl3   1  UNL1       -0.2899
     10 H         140.8154  139.6460  156.0922 H       1  UNL1        0.1511
     11 C         141.3226  137.6044  156.6122 C.ar    1  UNL1        0.2890
     12 N         140.7511  136.5349  155.7292 N.ar    1  UNL1       -0.1948
     13 C         141.6363  135.3282  155.8303 C.ar    1  UNL1        0.1202
     14 C         141.5683  133.9765  155.1835 C.ar    1  UNL1        0.0224
     15 C         142.6189  132.9485  155.4822 C.ar    1  UNL1        0.0029
     16 C         143.7376  133.2722  156.4277 C.ar    1  UNL1        0.0171
     17 C         143.8056  134.6238  157.0745 C.ar    1  UNL1        0.0403
     18 C         142.7549  135.6518  156.7757 C.ar    1  UNL1        0.1660
     19 O         142.5610  137.0586  157.2590 O.2     1  UNL1       -0.4239
     20 C         144.7882  132.2440  156.7265 C.2     1  UNL1        0.0730
     21 O         145.1210  131.1941  155.7082 O.co2   1  UNL1       -0.5446
     22 O         145.5060  132.2659  158.0433 O.co2   1  UNL1       -0.5446
     23 C         138.0239  142.3420  161.6501 C.3     1  UNL1        0.0993
     24 C         138.8744  140.6953  165.1594 C.ar    1  UNL1        0.1411
     25 C         138.1811  140.9878  163.8617 C.ar    1  UNL1        0.0342
     26 C         138.7171  142.0495  162.9477 C.ar    1  UNL1       -0.0001
     27 C         139.9464  142.8187  163.3314 C.ar    1  UNL1        0.0342
     28 C         140.6397  142.5262  164.6290 C.ar    1  UNL1        0.1411
     29 C         140.1036  141.4645  165.5430 C.ar    1  UNL1        0.0679
     30 C         140.7969  141.1720  166.8406 C.ar    1  UNL1        0.0060
     31 C         141.7601  140.0260  166.9347 C.ar    1  UNL1        0.0025
     32 C         142.4534  139.7336  168.2324 C.ar    1  UNL1        0.0296
     33 C         142.1834  140.5871  169.4359 C.ar    1  UNL1        0.1401
     34 F         142.8766  140.2946  170.7335 F       1  UNL1       -0.2042
     35 C         141.2201  141.7331  169.3418 C.ar    1  UNL1        0.0296
     36 C         140.5269  142.0256  168.0442 C.ar    1  UNL1        0.0025
     37 O         138.3384  139.6336  166.0734 O.3     1  UNL1       -0.4754
     38 C         139.6378  137.7065  164.9126 C.3     1  UNL1        0.0512
     39 C         138.4483  138.1878  165.6893 C.3     1  UNL1        0.2055
     40 O         141.8689  143.2955  165.0125 O.3     1  UNL1       -0.4754
     41 C         143.1708  143.0236  164.3187 C.3     1  UNL1        0.2055
     42 C         144.1756  142.1019  164.9437 C.3     1  UNL1        0.0512
@<TRIPOS>UNITY_ATOM_ATTR
21 1
charge -1
@<TRIPOS>BOND
     1    38    39    1
     2    39    37    1
     3    37    24    1
     4    24    25   ar
     5    25    26   ar
     6    26    23    1
     7    23     1    1
     8     1     2    1
     9     2     3    1
    10     4     3    1
    11     4     5    1
    12     5     9    1
    13     9    11    1
    14    11    12   ar
    15    12    13   ar
    16    13    14   ar
    17    14    15   ar
    18    15    16   ar
    19    16    20    1
    20    20    21   ar
    21    20    22   ar
    22    16    17   ar
    23    17    18   ar
    24    18    19   ar
    25     5     6    1
    26     6     7    1
    27     8     7    1
    28    26    27   ar
    29    27    28   ar
    30    28    40    1
    31    40    41    1
    32    41    42    1
    33    28    29   ar
    34    29    30    1
    35    30    31   ar
    36    31    32   ar
    37    32    33   ar
    38    33    34    1
    39    33    35   ar
    40    35    36   ar
    41    29    24   ar
    42    36    30   ar
    43     8     1    1
    44     8     4    1
    45    19    11   ar
    46    18    13   ar
    47     9    10    1
@<TRIPOS>MOLECULE
*****
 42 47 0 0 0
SMALL
GASTEIGER

@<TRIPOS>ATOM
      1 N         140.7136  140.1555  159.3125 N.3     1  UNL1       -0.2702
      2 C         139.4690  139.3183  159.3151 C.3     1  UNL1        0.0724
      3 C         139.6581  138.2037  158.3293 C.3     1  UNL1        0.0203
      4 C         141.0195  138.3521  157.7174 C.3     1  UNL1        0.0341
      5 C         141.9778  137.7549  156.7300 C.3     1  UNL1        0.0745
      6 C         143.2225  138.5922  156.7274 C.3     1  UNL1        0.0210
      7 C         143.0334  139.7068  157.7132 C.3     1  UNL1        0.0177
      8 C         141.6719  139.5584  158.3251 C.3     1  UNL1        0.0594
      9 N         141.7343  136.5347  155.8922 N.pl3   1  UNL1       -0.2899
     10 H         141.1725  136.5953  155.0860 H       1  UNL1        0.1511
     11 C         142.3468  135.2223  156.2827 C.ar    1  UNL1        0.2890
     12 N         143.5817  135.0383  157.1140 N.ar    1  UNL1       -0.1948
     13 C         143.8300  133.5658  157.2556 C.ar    1  UNL1        0.1202
     14 C         144.9011  132.7922  157.9657 C.ar    1  UNL1        0.0224
     15 C         144.8908  131.2927  157.9320 C.ar    1  UNL1        0.0029
     16 C         143.8092  130.5667  157.1883 C.ar    1  UNL1        0.0171
     17 C         142.7381  131.3402  156.4782 C.ar    1  UNL1        0.0403
     18 C         142.7485  132.8397  156.5118 C.ar    1  UNL1        0.1660
     19 O         141.8318  133.8636  155.9106 O.2     1  UNL1       -0.4239
     20 C         143.7989  129.0670  157.1546 C.2     1  UNL1        0.0730
     21 O         142.6200  128.3378  156.5815 O.co2   1  UNL1       -0.5446
     22 O         144.9674  128.2967  157.6941 O.co2   1  UNL1       -0.5446
     23 C         140.9572  141.3757  160.1503 C.3     1  UNL1        0.0993
     24 C         139.3540  141.8494  163.7497 C.ar    1  UNL1        0.1411
     25 C         139.5426  141.9106  162.2628 C.ar    1  UNL1        0.0342
     26 C         140.7686  141.3145  161.6371 C.ar    1  UNL1       -0.0001
     27 C         141.8061  140.6572  162.4983 C.ar    1  UNL1        0.0342
     28 C         141.6176  140.5960  163.9851 C.ar    1  UNL1        0.1411
     29 C         140.3915  141.1921  164.6108 C.ar    1  UNL1        0.0679
     30 C         140.2030  141.1309  166.0976 C.ar    1  UNL1        0.0060
     31 C         139.4473  139.9898  166.7115 C.ar    1  UNL1        0.0025
     32 C         139.2588  139.9286  168.1984 C.ar    1  UNL1        0.0296
     33 C         139.8258  141.0086  169.0714 C.ar    1  UNL1        0.1401
     34 F         139.6373  140.9474  170.5582 F       1  UNL1       -0.2042
     35 C         140.5815  142.1497  168.4575 C.ar    1  UNL1        0.0296
     36 C         140.7701  142.2109  166.9707 C.ar    1  UNL1        0.0025
     37 O         138.1280  142.4455  164.3754 O.3     1  UNL1       -0.4754
     38 C         138.6772  144.8025  165.3202 C.3     1  UNL1        0.0512
     39 C         137.9243  143.9315  164.3587 C.3     1  UNL1        0.2055
     40 O         142.6551  139.9388  164.8463 O.3     1  UNL1       -0.4754
     41 C         142.4649  138.5218  165.3003 C.3     1  UNL1        0.2055
     42 C         141.5310  137.6145  164.5555 C.3     1  UNL1        0.0512
@<TRIPOS>UNITY_ATOM_ATTR
21 1
charge -1
@<TRIPOS>BOND
     1    38    39    1
     2    39    37    1
     3    37    24    1
     4    24    25   ar
     5    25    26   ar
     6    26    23    1
     7    23     1    1
     8     1     2    1
     9     2     3    1
    10     4     3    1
    11     4     5    1
    12     5     9    1
    13     9    11    1
    14    11    12   ar
    15    12    13   ar
    16    13    14   ar
    17    14    15   ar
    18    15    16   ar
    19    16    20    1
    20    20    21   ar
    21    20    22   ar
    22    16    17   ar
    23    17    18   ar
    24    18    19   ar
    25     5     6    1
    26     6     7    1
    27     8     7    1
    28    26    27   ar
    29    27    28   ar
    30    28    40    1
    31    40    41    1
    32    41    42    1
    33    28    29   ar
    34    29    30    1
    35    30    31   ar
    36    31    32   ar
    37    32    33   ar
    38    33    34    1
    39    33    35   ar
    40    35    36   ar
    41    29    24   ar
    42    36    30   ar
    43     8     1    1
    44     8     4    1
    45    19    11   ar
    46    18    13   ar
    47     9    10    1
@<TRIPOS>MOLECULE
*****
 42 47 0 0 0
SMALL
GASTEIGER

@<TRIPOS>ATOM
      1 N         138.7340  142.0358  160.3035 N.3     1  UNL1       -0.2702
      2 C         138.9882  142.9725  159.1598 C.3     1  UNL1        0.0724
      3 C         139.6336  142.1902  158.0546 C.3     1  UNL1        0.0203
      4 C         139.7783  140.7700  158.5152 C.3     1  UNL1        0.0341
      5 C         140.2666  139.4088  158.1169 C.3     1  UNL1        0.0745
      6 C         140.0124  138.4721  159.2607 C.3     1  UNL1        0.0210
      7 C         139.3670  139.2544  160.3659 C.3     1  UNL1        0.0177
      8 C         139.2223  140.6747  159.9052 C.3     1  UNL1        0.0594
      9 N         140.8982  139.0477  156.8052 N.pl3   1  UNL1       -0.2899
     10 H         141.0362  139.7393  156.1183 H       1  UNL1        0.1511
     11 C         141.3194  137.6327  156.5399 C.ar    1  UNL1        0.2890
     12 N         140.8026  136.7498  155.4429 N.ar    1  UNL1       -0.1948
     13 C         141.4952  135.4236  155.5501 C.ar    1  UNL1        0.1202
     14 C         141.3876  134.1666  154.7388 C.ar    1  UNL1        0.0224
     15 C         142.2248  132.9728  155.0907 C.ar    1  UNL1        0.0029
     16 C         143.1697  133.0360  156.2540 C.ar    1  UNL1        0.0171
     17 C         143.2773  134.2930  157.0653 C.ar    1  UNL1        0.0403
     18 C         142.4401  135.4868  156.7134 C.ar    1  UNL1        0.1660
     19 O         142.3314  136.8521  157.3251 O.2     1  UNL1       -0.4239
     20 C         144.0069  131.8422  156.6059 C.2     1  UNL1        0.0730
     21 O         145.4545  131.7999  156.2152 O.co2   1  UNL1       -0.5446
     22 O         143.3966  130.6907  157.3485 O.co2   1  UNL1       -0.5446
     23 C         138.1024  142.3969  161.6153 C.3     1  UNL1        0.0993
     24 C         140.4968  142.3061  164.7790 C.ar    1  UNL1        0.1411
     25 C         139.8623  142.7489  163.4939 C.ar    1  UNL1        0.0342
     26 C         138.7370  141.9542  162.9003 C.ar    1  UNL1       -0.0001
     27 C         138.2463  140.7168  163.5918 C.ar    1  UNL1        0.0342
     28 C         138.8809  140.2741  164.8768 C.ar    1  UNL1        0.1411
     29 C         140.0061  141.0687  165.4704 C.ar    1  UNL1        0.0679
     30 C         140.6407  140.6260  166.7554 C.ar    1  UNL1        0.0060
     31 C         141.9697  139.9308  166.7351 C.ar    1  UNL1        0.0025
     32 C         142.6042  139.4880  168.0202 C.ar    1  UNL1        0.0296
     33 C         141.9098  139.7406  169.3255 C.ar    1  UNL1        0.1401
     34 F         142.5443  139.2979  170.6105 F       1  UNL1       -0.2042
     35 C         140.5808  140.4358  169.3458 C.ar    1  UNL1        0.0296
     36 C         139.9462  140.8785  168.0608 C.ar    1  UNL1        0.0025
     37 O         141.6221  143.1007  165.3726 O.3     1  UNL1       -0.4754
     38 C         144.2157  143.1901  165.4940 C.3     1  UNL1        0.0512
     39 C         142.9540  143.1447  164.6841 C.3     1  UNL1        0.2055
     40 O         138.3902  139.0367  165.5682 O.3     1  UNL1       -0.4754
     41 C         138.8285  137.6851  165.0875 C.3     1  UNL1        0.2055
     42 C         140.2267  137.4858  164.5824 C.3     1  UNL1        0.0512
@<TRIPOS>UNITY_ATOM_ATTR
21 1
charge -1
@<TRIPOS>BOND
     1    38    39    1
     2    39    37    1
     3    37    24    1
     4    24    25   ar
     5    25    26   ar
     6    26    23    1
     7    23     1    1
     8     1     2    1
     9     2     3    1
    10     4     3    1
    11     4     5    1
    12     5     9    1
    13     9    11    1
    14    11    12   ar
    15    12    13   ar
    16    13    14   ar
    17    14    15   ar
    18    15    16   ar
    19    16    20    1
    20    20    21   ar
    21    20    22   ar
    22    16    17   ar
    23    17    18   ar
    24    18    19   ar
    25     5     6    1
    26     6     7    1
    27     8     7    1
    28    26    27   ar
    29    27    28   ar
    30    28    40    1
    31    40    41    1
    32    41    42    1
    33    28    29   ar
    34    29    30    1
    35    30    31   ar
    36    31    32   ar
    37    32    33   ar
    38    33    34    1
    39    33    35   ar
    40    35    36   ar
    41    29    24   ar
    42    36    30   ar
    43     8     1    1
    44     8     4    1
    45    19    11   ar
    46    18    13   ar
    47     9    10    1
