@<TRIPOS>MOLECULE
*****
 31 33 0 0 0
SMALL
GASTEIGER

@<TRIPOS>ATOM
      1 N         138.5415  138.7825  162.9743 N.3     1  UNL1       -0.2724
      2 C         138.9983  137.6327  163.8225 C.3     1  UNL1        0.0758
      3 C         138.9985  137.7570  165.3173 C.3     1  UNL1        0.0609
      4 C         138.5419  139.0311  165.9640 C.3     1  UNL1        0.1687
      5 C         138.0851  140.1809  165.1159 C.3     1  UNL1        0.0609
      6 C         138.0849  140.0566  163.6210 C.3     1  UNL1        0.0758
      7 C         138.5413  138.6582  161.4795 C.3     1  UNL1        0.0721
      8 N         139.9907  142.0766  158.9371 N.3     1  UNL1       -0.2727
      9 C         140.9454  141.3600  159.8454 C.3     1  UNL1        0.0721
     10 C         140.4622  140.2206  160.6929 C.3     1  UNL1        0.0188
     11 C         139.0244  139.7977  160.6320 C.3     1  UNL1        0.0188
     12 C         138.0697  140.5143  159.7237 C.3     1  UNL1        0.0188
     13 C         138.5529  141.6537  158.8763 C.3     1  UNL1        0.0721
     14 C         140.4739  143.2161  158.0897 C.3     1  UNL1        0.0727
     15 C         140.1236  144.6270  158.4595 C.3     1  UNL1        0.0290
     16 C         140.7639  145.2703  159.6537 C.3     1  UNL1        0.1110
     17 C         140.0269  145.3300  160.9588 C.2     1  UNL1        0.3171
     18 O         139.3329  146.5942  161.3711 O.2     1  UNL1       -0.2501
     19 C         138.6760  143.4471  162.1335 C.3     1  UNL1        0.2556
     20 O         139.9839  144.1254  161.8516 O.3     1  UNL1       -0.4444
     21 O         138.5421  139.1554  167.4589 O.3     1  UNL1       -0.4790
     22 C         139.5007  140.0913  168.1335 C.ar    1  UNL1        0.1392
     23 C         139.2887  140.4768  169.5675 C.ar    1  UNL1        0.0367
     24 C         140.2473  141.4127  170.2422 C.ar    1  UNL1        0.0021
     25 C         141.4180  141.9631  169.4828 C.ar    1  UNL1        0.0177
     26 C         141.6300  141.5776  168.0487 C.ar    1  UNL1        0.0590
     27 CL        142.8006  142.1280  167.2893 Cl      1  UNL1       -0.0824
     28 C         140.6713  140.6417  167.3741 C.ar    1  UNL1        0.0480
     29 C         142.3766  142.8990  170.1574 C.3     1  UNL1        0.1644
     30 O         143.7771  142.4519  170.4553 O.3     1  UNL1       -0.3772
     31 H         143.7560  141.7392  171.1130 H       1  UNL1        0.2109
@<TRIPOS>BOND
     1    19    20    1
     2    20    17    1
     3    17    18    2
     4    17    16    1
     5    16    15    1
     6    15    14    1
     7    14     8    1
     8     8     9    1
     9     9    10    1
    10    10    11    1
    11    11     7    1
    12     7     1    1
    13     1     2    1
    14     2     3    1
    15     3     4    1
    16     4    21    1
    17    21    22    1
    18    22    23   ar
    19    23    24   ar
    20    24    25   ar
    21    25    29    1
    22    29    30    1
    23    25    26   ar
    24    26    27    1
    25    26    28   ar
    26     4     5    1
    27     5     6    1
    28    11    12    1
    29    12    13    1
    30    13     8    1
    31     6     1    1
    32    28    22   ar
    33    30    31    1
@<TRIPOS>MOLECULE
*****
 31 33 0 0 0
SMALL
GASTEIGER

@<TRIPOS>ATOM
      1 N         138.7270  143.8152  162.0121 N.3     1  UNL1       -0.2724
      2 C         139.1520  145.2290  162.2784 C.3     1  UNL1        0.0758
      3 C         140.0938  145.9190  161.3366 C.3     1  UNL1        0.0609
      4 C         140.6106  145.1954  160.1286 C.3     1  UNL1        0.1687
      5 C         140.1856  143.7818  159.8623 C.3     1  UNL1        0.0609
      6 C         139.2438  143.0916  160.8040 C.3     1  UNL1        0.0758
      7 C         137.7853  143.1252  162.9538 C.3     1  UNL1        0.0721
      8 N         139.4020  140.8032  166.4530 N.3     1  UNL1       -0.2727
      9 C         138.4326  140.1575  165.5079 C.3     1  UNL1        0.0721
     10 C         137.8937  140.9315  164.3415 C.3     1  UNL1        0.0188
     11 C         138.3242  142.3512  164.1202 C.3     1  UNL1        0.0188
     12 C         139.2936  142.9969  165.0653 C.3     1  UNL1        0.0188
     13 C         139.8325  142.2229  166.2317 C.3     1  UNL1        0.0721
     14 C         139.9409  140.0292  167.6194 C.3     1  UNL1        0.0727
     15 C         139.3455  140.2166  168.9833 C.3     1  UNL1        0.0290
     16 C         139.6897  141.4326  169.7913 C.3     1  UNL1        0.1110
     17 C         140.7276  141.3466  170.8710 C.2     1  UNL1        0.3171
     18 O         140.5435  142.1074  172.1505 O.2     1  UNL1       -0.2501
     19 C         143.1402  141.0594  169.9507 C.3     1  UNL1        0.2556
     20 O         141.9494  140.4998  170.6710 O.3     1  UNL1       -0.4444
     21 O         141.5524  145.8855  159.1869 O.3     1  UNL1       -0.4790
     22 C         141.3189  145.8147  157.7069 C.ar    1  UNL1        0.1392
     23 C         140.0310  146.3184  157.1258 C.ar    1  UNL1        0.0367
     24 C         139.7975  146.2476  155.6458 C.ar    1  UNL1        0.0021
     25 C         140.8520  145.6732  154.7468 C.ar    1  UNL1        0.0177
     26 C         142.1399  145.1695  155.3278 C.ar    1  UNL1        0.0590
     27 CL        143.1944  144.5951  154.4289 Cl      1  UNL1       -0.0824
     28 C         142.3734  145.2403  156.8079 C.ar    1  UNL1        0.0480
     29 C         140.6185  145.6024  153.2668 C.3     1  UNL1        0.1644
     30 O         139.6076  144.6431  152.7120 O.3     1  UNL1       -0.3772
     31 H         139.9025  143.7333  152.8735 H       1  UNL1        0.2109
@<TRIPOS>BOND
     1    19    20    1
     2    20    17    1
     3    17    18    2
     4    17    16    1
     5    16    15    1
     6    15    14    1
     7    14     8    1
     8     8     9    1
     9     9    10    1
    10    10    11    1
    11    11     7    1
    12     7     1    1
    13     1     2    1
    14     2     3    1
    15     3     4    1
    16     4    21    1
    17    21    22    1
    18    22    23   ar
    19    23    24   ar
    20    24    25   ar
    21    25    29    1
    22    29    30    1
    23    25    26   ar
    24    26    27    1
    25    26    28   ar
    26     4     5    1
    27     5     6    1
    28    11    12    1
    29    12    13    1
    30    13     8    1
    31     6     1    1
    32    28    22   ar
    33    30    31    1
@<TRIPOS>MOLECULE
*****
 31 33 0 0 0
SMALL
GASTEIGER

@<TRIPOS>ATOM
      1 N         138.4163  138.7565  162.9264 N.3     1  UNL1       -0.2724
      2 C         138.0148  140.0402  163.5905 C.3     1  UNL1        0.0758
      3 C         138.0749  140.1626  165.0843 C.3     1  UNL1        0.0609
      4 C         138.5366  139.0014  165.9140 C.3     1  UNL1        0.1687
      5 C         138.9382  137.7178  165.2500 C.3     1  UNL1        0.0609
      6 C         138.8780  137.5953  163.7562 C.3     1  UNL1        0.0758
      7 C         138.3562  138.6340  161.4327 C.3     1  UNL1        0.0721
      8 N         140.0649  141.8892  158.8377 N.3     1  UNL1       -0.2727
      9 C         138.6079  141.5449  158.7469 C.3     1  UNL1        0.0721
     10 C         138.0383  140.4598  159.6119 C.3     1  UNL1        0.0188
     11 C         138.9258  139.7191  160.5677 C.3     1  UNL1        0.0188
     12 C         140.3829  140.0635  160.6585 C.3     1  UNL1        0.0188
     13 C         140.9524  141.1485  159.7935 C.3     1  UNL1        0.0721
     14 C         140.6345  142.9743  157.9727 C.3     1  UNL1        0.0727
     15 C         140.0499  144.3548  158.0189 C.3     1  UNL1        0.0290
     16 C         140.5532  145.3493  159.0228 C.3     1  UNL1        0.1110
     17 C         140.6333  144.9756  160.4734 C.2     1  UNL1        0.3171
     18 O         141.9698  144.7626  161.1202 O.2     1  UNL1       -0.2501
     19 C         139.1226  143.5398  162.0245 C.3     1  UNL1        0.2556
     20 O         139.3770  144.8151  161.2770 O.3     1  UNL1       -0.4444
     21 O         138.5967  139.1239  167.4079 O.3     1  UNL1       -0.4790
     22 C         139.5816  140.0589  168.0447 C.ar    1  UNL1        0.1392
     23 C         139.3642  140.5334  169.4509 C.ar    1  UNL1        0.0367
     24 C         140.3491  141.4684  170.0877 C.ar    1  UNL1        0.0021
     25 C         141.5516  141.9291  169.3183 C.ar    1  UNL1        0.0177
     26 C         141.7690  141.4546  167.9120 C.ar    1  UNL1        0.0590
     27 CL        142.9714  141.9151  167.1426 Cl      1  UNL1       -0.0824
     28 C         140.7840  140.5195  167.2752 C.ar    1  UNL1        0.0480
     29 C         142.5365  142.8641  169.9551 C.3     1  UNL1        0.1644
     30 O         143.8844  142.3596  170.3776 O.3     1  UNL1       -0.3772
     31 H         143.7787  141.7196  171.0987 H       1  UNL1        0.2109
@<TRIPOS>BOND
     1    19    20    1
     2    20    17    1
     3    17    18    2
     4    17    16    1
     5    16    15    1
     6    15    14    1
     7    14     8    1
     8     8     9    1
     9     9    10    1
    10    10    11    1
    11    11     7    1
    12     7     1    1
    13     1     2    1
    14     2     3    1
    15     3     4    1
    16     4    21    1
    17    21    22    1
    18    22    23   ar
    19    23    24   ar
    20    24    25   ar
    21    25    29    1
    22    29    30    1
    23    25    26   ar
    24    26    27    1
    25    26    28   ar
    26     4     5    1
    27     5     6    1
    28    11    12    1
    29    12    13    1
    30    13     8    1
    31     6     1    1
    32    28    22   ar
    33    30    31    1
@<TRIPOS>MOLECULE
*****
 31 33 0 0 0
SMALL
GASTEIGER

@<TRIPOS>ATOM
      1 N         138.7918  138.7825  162.7808 N.3     1  UNL1       -0.2724
      2 C         138.2506  140.0351  163.4039 C.3     1  UNL1        0.0758
      3 C         138.1099  140.1311  164.8941 C.3     1  UNL1        0.0609
      4 C         138.5103  138.9745  165.7614 C.3     1  UNL1        0.1687
      5 C         139.0515  137.7220  165.1383 C.3     1  UNL1        0.0609
      6 C         139.1922  137.6259  163.6480 C.3     1  UNL1        0.0758
      7 C         138.9325  138.6865  161.2905 C.3     1  UNL1        0.0721
      8 N         142.3237  140.7897  159.2105 N.3     1  UNL1       -0.2727
      9 C         140.9875  141.4602  159.3326 C.3     1  UNL1        0.0721
     10 C         139.8571  140.7592  160.0260 C.3     1  UNL1        0.0188
     11 C         140.0629  139.3876  160.5972 C.3     1  UNL1        0.0188
     12 C         141.3991  138.7170  160.4751 C.3     1  UNL1        0.0188
     13 C         142.5295  139.4181  159.7817 C.3     1  UNL1        0.0721
     14 C         143.4541  141.4908  158.5172 C.3     1  UNL1        0.0727
     15 C         144.3873  142.3656  159.3006 C.3     1  UNL1        0.0290
     16 C         144.2764  142.4316  160.7951 C.3     1  UNL1        0.1110
     17 C         143.4109  143.4747  161.4376 C.2     1  UNL1        0.3171
     18 O         142.5730  144.3823  160.5866 O.2     1  UNL1       -0.2501
     19 C         143.6880  144.9328  163.5700 C.3     1  UNL1        0.2556
     20 O         143.3833  143.6103  162.9312 O.3     1  UNL1       -0.4444
     21 O         138.3696  139.0706  167.2517 O.3     1  UNL1       -0.4790
     22 C         139.3271  139.9115  168.0428 C.ar    1  UNL1        0.1392
     23 C         139.0108  140.2725  169.4639 C.ar    1  UNL1        0.0367
     24 C         139.9683  141.1135  170.2551 C.ar    1  UNL1        0.0021
     25 C         141.2423  141.5934  169.6250 C.ar    1  UNL1        0.0177
     26 C         141.5586  141.2324  168.2039 C.ar    1  UNL1        0.0590
     27 CL        142.8324  141.7123  167.5739 Cl      1  UNL1       -0.0824
     28 C         140.6009  140.3914  167.4128 C.ar    1  UNL1        0.0480
     29 C         142.1998  142.4344  170.4162 C.3     1  UNL1        0.1644
     30 O         142.2070  142.3548  171.9140 O.3     1  UNL1       -0.3772
     31 H         141.3674  142.6959  172.2600 H       1  UNL1        0.2109
@<TRIPOS>BOND
     1    19    20    1
     2    20    17    1
     3    17    18    2
     4    17    16    1
     5    16    15    1
     6    15    14    1
     7    14     8    1
     8     8     9    1
     9     9    10    1
    10    10    11    1
    11    11     7    1
    12     7     1    1
    13     1     2    1
    14     2     3    1
    15     3     4    1
    16     4    21    1
    17    21    22    1
    18    22    23   ar
    19    23    24   ar
    20    24    25   ar
    21    25    29    1
    22    29    30    1
    23    25    26   ar
    24    26    27    1
    25    26    28   ar
    26     4     5    1
    27     5     6    1
    28    11    12    1
    29    12    13    1
    30    13     8    1
    31     6     1    1
    32    28    22   ar
    33    30    31    1
@<TRIPOS>MOLECULE
*****
 31 33 0 0 0
SMALL
GASTEIGER

@<TRIPOS>ATOM
      1 N         138.9815  139.3392  160.6678 N.3     1  UNL1       -0.2724
      2 C         138.3362  140.3373  161.5829 C.3     1  UNL1        0.0758
      3 C         138.1477  140.0114  163.0349 C.3     1  UNL1        0.0609
      4 C         138.6046  138.6874  163.5718 C.3     1  UNL1        0.1687
      5 C         139.2500  137.6893  162.6568 C.3     1  UNL1        0.0609
      6 C         139.4384  138.0152  161.2047 C.3     1  UNL1        0.0758
      7 C         139.1700  139.6651  159.2158 C.3     1  UNL1        0.0721
      8 N         142.4743  137.6981  156.8787 N.3     1  UNL1       -0.2727
      9 C         142.8011  138.7346  157.9125 C.3     1  UNL1        0.0721
     10 C         141.6997  139.3902  158.6916 C.3     1  UNL1        0.0188
     11 C         140.2714  139.0095  158.4368 C.3     1  UNL1        0.0188
     12 C         139.9446  137.9730  157.4029 C.3     1  UNL1        0.0188
     13 C         141.0460  137.3173  156.6239 C.3     1  UNL1        0.0721
     14 C         143.5758  137.0424  156.0996 C.3     1  UNL1        0.0727
     15 C         143.5307  135.5669  155.8336 C.3     1  UNL1        0.0290
     16 C         143.4793  134.5996  156.9789 C.3     1  UNL1        0.1110
     17 C         143.5235  133.1234  156.7163 C.2     1  UNL1        0.3171
     18 O         144.8440  132.4208  156.6039 O.2     1  UNL1       -0.2501
     19 C         141.3342  132.6265  155.4085 C.3     1  UNL1        0.2556
     20 O         142.2471  132.3498  156.5661 O.3     1  UNL1       -0.4444
     21 O         138.4162  138.3615  165.0238 O.3     1  UNL1       -0.4790
     22 C         139.2983  138.9988  166.0561 C.ar    1  UNL1        0.1392
     23 C         140.7534  139.2191  165.7665 C.ar    1  UNL1        0.0367
     24 C         141.6355  139.8564  166.7988 C.ar    1  UNL1        0.0021
     25 C         141.0625  140.2734  168.1209 C.ar    1  UNL1        0.0177
     26 C         139.6073  140.0531  168.4105 C.ar    1  UNL1        0.0590
     27 CL        139.0342  140.4700  169.7325 Cl      1  UNL1       -0.0824
     28 C         138.7252  139.4157  167.3781 C.ar    1  UNL1        0.0480
     29 C         141.9445  140.9107  169.1532 C.3     1  UNL1        0.1644
     30 O         143.2405  140.2602  169.5372 O.3     1  UNL1       -0.3772
     31 H         143.0600  139.4149  169.9774 H       1  UNL1        0.2109
@<TRIPOS>BOND
     1    19    20    1
     2    20    17    1
     3    17    18    2
     4    17    16    1
     5    16    15    1
     6    15    14    1
     7    14     8    1
     8     8     9    1
     9     9    10    1
    10    10    11    1
    11    11     7    1
    12     7     1    1
    13     1     2    1
    14     2     3    1
    15     3     4    1
    16     4    21    1
    17    21    22    1
    18    22    23   ar
    19    23    24   ar
    20    24    25   ar
    21    25    29    1
    22    29    30    1
    23    25    26   ar
    24    26    27    1
    25    26    28   ar
    26     4     5    1
    27     5     6    1
    28    11    12    1
    29    12    13    1
    30    13     8    1
    31     6     1    1
    32    28    22   ar
    33    30    31    1
@<TRIPOS>MOLECULE
*****
 31 33 0 0 0
SMALL
GASTEIGER

@<TRIPOS>ATOM
      1 N         137.8388  141.6646  162.1456 N.3     1  UNL1       -0.2724
      2 C         138.3101  142.5194  161.0066 C.3     1  UNL1        0.0758
      3 C         138.4678  141.9254  159.6383 C.3     1  UNL1        0.0609
      4 C         138.1542  140.4766  159.4090 C.3     1  UNL1        0.1687
      5 C         137.6829  139.6218  160.5479 C.3     1  UNL1        0.0609
      6 C         137.5251  140.2158  161.9162 C.3     1  UNL1        0.0758
      7 C         137.6811  142.2587  163.5138 C.3     1  UNL1        0.0721
      8 N         140.7434  141.4126  166.7008 N.3     1  UNL1       -0.2727
      9 C         140.8617  142.6461  165.8555 C.3     1  UNL1        0.0721
     10 C         139.8409  142.9281  164.7932 C.3     1  UNL1        0.0188
     11 C         138.7018  141.9766  164.5762 C.3     1  UNL1        0.0188
     12 C         138.5835  140.7431  165.4214 C.3     1  UNL1        0.0188
     13 C         139.6043  140.4611  166.4837 C.3     1  UNL1        0.0721
     14 C         141.7641  141.1306  167.7631 C.3     1  UNL1        0.0727
     15 C         141.6175  139.9246  168.6428 C.3     1  UNL1        0.0290
     16 C         141.3393  140.0937  170.1071 C.3     1  UNL1        0.1110
     17 C         139.9338  140.3132  170.5830 C.2     1  UNL1        0.3171
     18 O         139.2052  139.2161  171.3010 O.2     1  UNL1       -0.2501
     19 C         140.0430  142.9043  170.4285 C.3     1  UNL1        0.2556
     20 O         139.2571  141.6298  170.3410 O.3     1  UNL1       -0.4444
     21 O         138.3119  139.8825  158.0406 O.3     1  UNL1       -0.4790
     22 C         139.4911  139.0076  157.7342 C.ar    1  UNL1        0.1392
     23 C         139.4801  138.1341  156.5148 C.ar    1  UNL1        0.0367
     24 C         140.6593  137.2591  156.2084 C.ar    1  UNL1        0.0021
     25 C         141.8495  137.2576  157.1214 C.ar    1  UNL1        0.0177
     26 C         141.8605  138.1311  158.3407 C.ar    1  UNL1        0.0590
     27 CL        143.0506  138.1297  159.2537 Cl      1  UNL1       -0.0824
     28 C         140.6812  139.0061  158.6471 C.ar    1  UNL1        0.0480
     29 C         143.0287  136.3826  156.8149 C.3     1  UNL1        0.1644
     30 O         144.1689  136.9186  156.0010 O.3     1  UNL1       -0.3772
     31 H         143.8640  137.1019  155.0986 H       1  UNL1        0.2109
@<TRIPOS>BOND
     1    19    20    1
     2    20    17    1
     3    17    18    2
     4    17    16    1
     5    16    15    1
     6    15    14    1
     7    14     8    1
     8     8     9    1
     9     9    10    1
    10    10    11    1
    11    11     7    1
    12     7     1    1
    13     1     2    1
    14     2     3    1
    15     3     4    1
    16     4    21    1
    17    21    22    1
    18    22    23   ar
    19    23    24   ar
    20    24    25   ar
    21    25    29    1
    22    29    30    1
    23    25    26   ar
    24    26    27    1
    25    26    28   ar
    26     4     5    1
    27     5     6    1
    28    11    12    1
    29    12    13    1
    30    13     8    1
    31     6     1    1
    32    28    22   ar
    33    30    31    1
@<TRIPOS>MOLECULE
*****
 31 33 0 0 0
SMALL
GASTEIGER

@<TRIPOS>ATOM
      1 N         140.8451  138.6385  159.8189 N.3     1  UNL1       -0.2724
      2 C         139.4009  138.6357  160.2243 C.3     1  UNL1        0.0758
      3 C         139.0056  138.1509  161.5876 C.3     1  UNL1        0.0609
      4 C         140.0544  137.6688  162.5455 C.3     1  UNL1        0.1687
      5 C         141.4986  137.6716  162.1401 C.3     1  UNL1        0.0609
      6 C         141.8940  138.1565  160.7768 C.3     1  UNL1        0.0758
      7 C         141.2404  139.1234  158.4556 C.3     1  UNL1        0.0721
      8 N         142.1492  136.1630  155.1906 N.3     1  UNL1       -0.2727
      9 C         140.7289  136.4103  155.6048 C.3     1  UNL1        0.0721
     10 C         140.4260  137.3970  156.6931 C.3     1  UNL1        0.0188
     11 C         141.5433  138.1366  157.3673 C.3     1  UNL1        0.0188
     12 C         142.9636  137.8894  156.9530 C.3     1  UNL1        0.0188
     13 C         143.2665  136.9026  155.8647 C.3     1  UNL1        0.0721
     14 C         142.4521  135.1762  154.1022 C.3     1  UNL1        0.0727
     15 C         141.5641  133.9840  153.9024 C.3     1  UNL1        0.0290
     16 C         141.7132  132.7812  154.7862 C.3     1  UNL1        0.1110
     17 C         142.8308  132.7182  155.7848 C.2     1  UNL1        0.3171
     18 O         142.6223  133.2349  157.1775 O.2     1  UNL1       -0.2501
     19 C         145.0507  131.5340  156.4326 C.3     1  UNL1        0.2556
     20 O         144.1569  132.1385  155.3907 O.3     1  UNL1       -0.4444
     21 O         139.6590  137.1839  163.9089 O.3     1  UNL1       -0.4790
     22 C         139.7043  138.1199  165.0801 C.ar    1  UNL1        0.1392
     23 C         138.4592  138.3926  165.8709 C.ar    1  UNL1        0.0367
     24 C         138.5045  139.3286  167.0421 C.ar    1  UNL1        0.0021
     25 C         139.7950  139.9919  167.4226 C.ar    1  UNL1        0.0177
     26 C         141.0401  139.7192  166.6318 C.ar    1  UNL1        0.0590
     27 CL        142.3305  140.3825  167.0123 Cl      1  UNL1       -0.0824
     28 C         140.9948  138.7832  165.4605 C.ar    1  UNL1        0.0480
     29 C         139.8403  140.9279  168.5938 C.3     1  UNL1        0.1644
     30 O         139.1077  140.5848  169.8569 O.3     1  UNL1       -0.3772
     31 H         138.1527  140.5838  169.6868 H       1  UNL1        0.2109
@<TRIPOS>BOND
     1    19    20    1
     2    20    17    1
     3    17    18    2
     4    17    16    1
     5    16    15    1
     6    15    14    1
     7    14     8    1
     8     8     9    1
     9     9    10    1
    10    10    11    1
    11    11     7    1
    12     7     1    1
    13     1     2    1
    14     2     3    1
    15     3     4    1
    16     4    21    1
    17    21    22    1
    18    22    23   ar
    19    23    24   ar
    20    24    25   ar
    21    25    29    1
    22    29    30    1
    23    25    26   ar
    24    26    27    1
    25    26    28   ar
    26     4     5    1
    27     5     6    1
    28    11    12    1
    29    12    13    1
    30    13     8    1
    31     6     1    1
    32    28    22   ar
    33    30    31    1
@<TRIPOS>MOLECULE
*****
 31 33 0 0 0
SMALL
GASTEIGER

@<TRIPOS>ATOM
      1 N         140.2090  138.7902  158.7529 N.3     1  UNL1       -0.2724
      2 C         139.7387  138.1436  157.4837 C.3     1  UNL1        0.0758
      3 C         140.6893  137.3233  156.6631 C.3     1  UNL1        0.0609
      4 C         142.1100  137.1494  157.1116 C.3     1  UNL1        0.1687
      5 C         142.5803  137.7959  158.3808 C.3     1  UNL1        0.0609
      6 C         141.6297  138.6164  159.2015 C.3     1  UNL1        0.0758
      7 C         139.2584  139.6105  159.5736 C.3     1  UNL1        0.0721
      8 N         138.8371  138.8242  163.9843 N.3     1  UNL1       -0.2727
      9 C         139.0409  140.2251  163.4883 C.3     1  UNL1        0.0721
     10 C         139.1814  140.4872  162.0180 C.3     1  UNL1        0.0188
     11 C         139.1180  139.3484  161.0438 C.3     1  UNL1        0.0188
     12 C         138.9141  137.9476  161.5398 C.3     1  UNL1        0.0188
     13 C         138.7737  137.6855  163.0100 C.3     1  UNL1        0.0721
     14 C         138.6966  138.5621  165.4545 C.3     1  UNL1        0.0727
     15 C         138.7260  139.7045  166.4261 C.3     1  UNL1        0.0290
     16 C         139.7825  139.7575  167.4897 C.3     1  UNL1        0.1110
     17 C         139.5015  140.4465  168.7922 C.2     1  UNL1        0.3171
     18 O         138.7196  139.7412  169.8603 O.2     1  UNL1       -0.2501
     19 C         140.7204  142.5736  167.9320 C.3     1  UNL1        0.2556
     20 O         140.0026  141.8408  169.0264 O.3     1  UNL1       -0.4444
     21 O         143.0606  136.3290  156.2909 O.3     1  UNL1       -0.4790
     22 C         142.9895  134.8314  156.3349 C.ar    1  UNL1        0.1392
     23 C         141.9250  134.1081  155.5644 C.ar    1  UNL1        0.0367
     24 C         141.8539  132.6105  155.6084 C.ar    1  UNL1        0.0021
     25 C         142.8474  131.8360  156.4228 C.ar    1  UNL1        0.0177
     26 C         143.9119  132.5593  157.1933 C.ar    1  UNL1        0.0590
     27 CL        144.9054  131.7850  158.0077 Cl      1  UNL1       -0.0824
     28 C         143.9830  134.0570  157.1493 C.ar    1  UNL1        0.0480
     29 C         142.7763  130.3384  156.4668 C.3     1  UNL1        0.1644
     30 O         141.7490  129.6120  155.6501 O.3     1  UNL1       -0.3772
     31 H         140.8626  129.8263  155.9806 H       1  UNL1        0.2109
@<TRIPOS>BOND
     1    19    20    1
     2    20    17    1
     3    17    18    2
     4    17    16    1
     5    16    15    1
     6    15    14    1
     7    14     8    1
     8     8     9    1
     9     9    10    1
    10    10    11    1
    11    11     7    1
    12     7     1    1
    13     1     2    1
    14     2     3    1
    15     3     4    1
    16     4    21    1
    17    21    22    1
    18    22    23   ar
    19    23    24   ar
    20    24    25   ar
    21    25    29    1
    22    29    30    1
    23    25    26   ar
    24    26    27    1
    25    26    28   ar
    26     4     5    1
    27     5     6    1
    28    11    12    1
    29    12    13    1
    30    13     8    1
    31     6     1    1
    32    28    22   ar
    33    30    31    1
@<TRIPOS>MOLECULE
*****
 31 33 0 0 0
SMALL
GASTEIGER

@<TRIPOS>ATOM
      1 N         143.6320  139.2232  162.2044 N.3     1  UNL1       -0.2724
      2 C         144.5941  139.9056  163.1313 C.3     1  UNL1        0.0758
      3 C         144.4612  139.7269  164.6146 C.3     1  UNL1        0.0609
      4 C         143.3663  138.8657  165.1712 C.3     1  UNL1        0.1687
      5 C         142.4044  138.1834  164.2444 C.3     1  UNL1        0.0609
      6 C         142.5372  138.3621  162.7610 C.3     1  UNL1        0.0758
      7 C         143.7649  139.4020  160.7211 C.3     1  UNL1        0.0721
      8 N         141.8322  142.9260  158.6973 N.3     1  UNL1       -0.2727
      9 C         141.0247  141.6982  158.9981 C.3     1  UNL1        0.0721
     10 C         141.6690  140.5235  159.6727 C.3     1  UNL1        0.0188
     11 C         143.1207  140.5766  160.0465 C.3     1  UNL1        0.0188
     12 C         143.9281  141.8044  159.7457 C.3     1  UNL1        0.0188
     13 C         143.2838  142.9791  159.0711 C.3     1  UNL1        0.0721
     14 C         141.1879  144.1007  158.0228 C.3     1  UNL1        0.0727
     15 C         140.2634  144.9947  158.7948 C.3     1  UNL1        0.0290
     16 C         140.6301  145.4352  160.1809 C.3     1  UNL1        0.1110
     17 C         140.0529  144.7266  161.3704 C.2     1  UNL1        0.3171
     18 O         140.7651  143.5440  161.9572 O.2     1  UNL1       -0.2501
     19 C         138.0085  144.3158  162.9200 C.3     1  UNL1        0.2556
     20 O         138.7636  145.2005  161.9730 O.3     1  UNL1       -0.4444
     21 O         143.2335  138.6870  166.6546 O.3     1  UNL1       -0.4790
     22 C         142.5184  139.7204  167.4735 C.ar    1  UNL1        0.1392
     23 C         142.5313  139.6316  168.9708 C.ar    1  UNL1        0.0367
     24 C         141.8162  140.6650  169.7897 C.ar    1  UNL1        0.0021
     25 C         141.0881  141.7874  169.1112 C.ar    1  UNL1        0.0177
     26 C         141.0751  141.8762  167.6139 C.ar    1  UNL1        0.0590
     27 CL        140.3471  142.9985  166.9355 Cl      1  UNL1       -0.0824
     28 C         141.7903  140.8427  166.7950 C.ar    1  UNL1        0.0480
     29 C         140.3730  142.8208  169.9301 C.3     1  UNL1        0.1644
     30 O         141.0468  144.1222  170.2500 O.3     1  UNL1       -0.3772
     31 H         141.8098  143.9582  170.8260 H       1  UNL1        0.2109
@<TRIPOS>BOND
     1    19    20    1
     2    20    17    1
     3    17    18    2
     4    17    16    1
     5    16    15    1
     6    15    14    1
     7    14     8    1
     8     8     9    1
     9     9    10    1
    10    10    11    1
    11    11     7    1
    12     7     1    1
    13     1     2    1
    14     2     3    1
    15     3     4    1
    16     4    21    1
    17    21    22    1
    18    22    23   ar
    19    23    24   ar
    20    24    25   ar
    21    25    29    1
    22    29    30    1
    23    25    26   ar
    24    26    27    1
    25    26    28   ar
    26     4     5    1
    27     5     6    1
    28    11    12    1
    29    12    13    1
    30    13     8    1
    31     6     1    1
    32    28    22   ar
    33    30    31    1
