@<TRIPOS>MOLECULE
*****
 26 28 0 0 0
SMALL
GASTEIGER

@<TRIPOS>ATOM
      1 O         138.9939  144.2634  164.9925 O.2     1  UNL1       -0.2522
      2 C         140.0193  143.5489  164.1630 C.2     1  UNL1        0.3078
      3 N         140.7168  142.3393  164.7108 N.am    1  UNL1       -0.2681
      4 N         140.3470  144.0441  162.7854 N.am    1  UNL1       -0.2611
      5 C         139.6495  145.2537  162.2376 C.3     1  UNL1        0.1123
      6 C         139.9774  145.7488  160.8601 C.3     1  UNL1        0.0940
      7 N         141.0027  145.0343  160.0306 N.3     1  UNL1       -0.2697
      8 C         141.7002  143.8246  160.5785 C.3     1  UNL1        0.0940
      9 C         141.3724  143.3295  161.9559 C.3     1  UNL1        0.1123
     10 H         141.3897  141.8703  164.1663 H       1  UNL1        0.1564
     11 C         140.3890  141.8441  166.0883 C.ar    1  UNL1        0.0525
     12 C         139.7674  140.4912  166.2708 C.ar    1  UNL1        0.0156
     13 C         139.4396  139.9961  167.6483 C.ar    1  UNL1        0.0135
     14 C         139.7335  140.8539  168.8432 C.ar    1  UNL1        0.0683
     15 CL        139.4057  140.3587  170.2207 Cl      1  UNL1       -0.0814
     16 C         140.3551  142.2067  168.6607 C.ar    1  UNL1        0.0694
     17 CL        140.6489  143.0645  169.8557 Cl      1  UNL1       -0.0813
     18 C         140.6828  142.7018  167.2833 C.ar    1  UNL1        0.0270
     19 C         141.3305  145.5294  158.6531 C.3     1  UNL1        0.0735
     20 C         140.3091  145.4334  157.5588 C.3     1  UNL1        0.0318
     21 C         139.8994  146.6639  156.8051 C.3     1  UNL1        0.0042
     22 C         138.8780  146.5679  155.7108 C.3     1  UNL1        0.0172
     23 C         138.2662  145.2413  155.3702 C.3     1  UNL1        0.0686
     24 N         138.6759  144.0108  156.1239 N.3     1  UNL1       -0.2974
     25 C         139.6973  144.1069  157.2182 C.3     1  UNL1        0.0699
     26 H         139.0422  143.3526  155.4361 H       1  UNL1        0.1232
@<TRIPOS>BOND
     1     1     2    2
     2     2     3   am
     3     3    11    1
     4    11    12   ar
     5    12    13   ar
     6    13    14   ar
     7    14    15    1
     8    14    16   ar
     9    16    17    1
    10    16    18   ar
    11     2     4   am
    12     4     5    1
    13     5     6    1
    14     6     7    1
    15     7    19    1
    16    19    20    1
    17    20    21    1
    18    21    22    1
    19    22    23    1
    20    23    24    1
    21    24    25    1
    22     7     8    1
    23     8     9    1
    24    18    11   ar
    25     9     4    1
    26    25    20    1
    27     3    10    1
    28    24    26    1
@<TRIPOS>MOLECULE
*****
 26 28 0 0 0
SMALL
GASTEIGER

@<TRIPOS>ATOM
      1 O         141.8812  137.8671  163.8092 O.2     1  UNL1       -0.2522
      2 C         141.2067  138.8156  162.8629 C.2     1  UNL1        0.3078
      3 N         140.2193  139.8180  163.3826 N.am    1  UNL1       -0.2681
      4 N         141.5197  138.7616  161.3969 N.am    1  UNL1       -0.2611
      5 C         142.5071  137.7592  160.8772 C.3     1  UNL1        0.1123
      6 C         142.8201  137.7053  159.4112 C.3     1  UNL1        0.0940
      7 N         142.1456  138.6538  158.4649 N.3     1  UNL1       -0.2697
      8 C         141.1582  139.6562  158.9846 C.3     1  UNL1        0.0940
      9 C         140.8452  139.7101  160.4506 C.3     1  UNL1        0.1123
     10 H         139.7766  140.4405  162.7615 H       1  UNL1        0.1564
     11 C         139.9063  139.8720  164.8486 C.ar    1  UNL1        0.0525
     12 C         140.7344  140.7270  165.7613 C.ar    1  UNL1        0.0156
     13 C         140.4213  140.7809  167.2273 C.ar    1  UNL1        0.0135
     14 C         139.2802  139.9798  167.7805 C.ar    1  UNL1        0.0683
     15 CL        138.9672  140.0338  169.2466 Cl      1  UNL1       -0.0814
     16 C         138.4522  139.1248  166.8678 C.ar    1  UNL1        0.0694
     17 CL        137.3110  138.3236  167.4210 Cl      1  UNL1       -0.0813
     18 C         138.7652  139.0708  165.4019 C.ar    1  UNL1        0.0270
     19 C         142.4586  138.5998  156.9989 C.3     1  UNL1        0.0735
     20 C         142.6898  137.2776  156.3295 C.3     1  UNL1        0.0318
     21 C         141.5733  136.2805  156.2328 C.3     1  UNL1        0.0042
     22 C         141.8044  134.9582  155.5635 C.3     1  UNL1        0.0172
     23 C         143.1521  134.6330  154.9907 C.3     1  UNL1        0.0686
     24 N         144.2686  135.6300  155.0874 N.3     1  UNL1       -0.2974
     25 C         144.0374  136.9523  155.7568 C.3     1  UNL1        0.0699
     26 H         144.5671  135.8313  154.1330 H       1  UNL1        0.1232
@<TRIPOS>BOND
     1     1     2    2
     2     2     3   am
     3     3    11    1
     4    11    12   ar
     5    12    13   ar
     6    13    14   ar
     7    14    15    1
     8    14    16   ar
     9    16    17    1
    10    16    18   ar
    11     2     4   am
    12     4     5    1
    13     5     6    1
    14     6     7    1
    15     7    19    1
    16    19    20    1
    17    20    21    1
    18    21    22    1
    19    22    23    1
    20    23    24    1
    21    24    25    1
    22     7     8    1
    23     8     9    1
    24    18    11   ar
    25     9     4    1
    26    25    20    1
    27     3    10    1
    28    24    26    1
@<TRIPOS>MOLECULE
*****
 26 28 0 0 0
SMALL
GASTEIGER

@<TRIPOS>ATOM
      1 O         137.9142  143.2467  161.0144 O.2     1  UNL1       -0.2522
      2 C         139.3138  142.9500  161.4653 C.2     1  UNL1        0.3078
      3 N         140.4753  143.2919  160.5800 N.am    1  UNL1       -0.2681
      4 N         139.5517  142.3112  162.8015 N.am    1  UNL1       -0.2611
      5 C         138.3902  141.9693  163.6868 C.3     1  UNL1        0.1123
      6 C         138.6281  141.3306  165.0230 C.3     1  UNL1        0.0940
      7 N         140.0276  141.0338  165.4738 N.3     1  UNL1       -0.2697
      8 C         141.1892  141.3758  164.5885 C.3     1  UNL1        0.0940
      9 C         140.9512  142.0145  163.2524 C.3     1  UNL1        0.1123
     10 H         141.3939  143.0972  160.8759 H       1  UNL1        0.1564
     11 C         140.2374  143.9307  159.2437 C.ar    1  UNL1        0.0525
     12 C         140.4510  145.4050  159.0685 C.ar    1  UNL1        0.0156
     13 C         140.2131  146.0436  157.7323 C.ar    1  UNL1        0.0135
     14 C         139.7615  145.2080  156.5713 C.ar    1  UNL1        0.0683
     15 CL        139.5236  145.8467  155.2351 Cl      1  UNL1       -0.0814
     16 C         139.5479  143.7337  156.7466 C.ar    1  UNL1        0.0694
     17 CL        139.0963  142.8981  155.5856 Cl      1  UNL1       -0.0813
     18 C         139.7858  143.0950  158.0828 C.ar    1  UNL1        0.0270
     19 C         140.2656  140.3951  166.8101 C.3     1  UNL1        0.0735
     20 C         140.1249  141.2055  168.0644 C.3     1  UNL1        0.0318
     21 C         140.6174  142.6218  168.1015 C.3     1  UNL1        0.0042
     22 C         140.4767  143.4322  169.3559 C.3     1  UNL1        0.0172
     23 C         139.8434  142.8262  170.5732 C.3     1  UNL1        0.0686
     24 N         139.3509  141.4098  170.5361 N.3     1  UNL1       -0.2974
     25 C         139.4916  140.5995  169.2817 C.3     1  UNL1        0.0699
     26 H         138.3557  141.4382  170.7582 H       1  UNL1        0.1232
@<TRIPOS>BOND
     1     1     2    2
     2     2     3   am
     3     3    11    1
     4    11    12   ar
     5    12    13   ar
     6    13    14   ar
     7    14    15    1
     8    14    16   ar
     9    16    17    1
    10    16    18   ar
    11     2     4   am
    12     4     5    1
    13     5     6    1
    14     6     7    1
    15     7    19    1
    16    19    20    1
    17    20    21    1
    18    21    22    1
    19    22    23    1
    20    23    24    1
    21    24    25    1
    22     7     8    1
    23     8     9    1
    24    18    11   ar
    25     9     4    1
    26    25    20    1
    27     3    10    1
    28    24    26    1
@<TRIPOS>MOLECULE
*****
 26 28 0 0 0
SMALL
GASTEIGER

@<TRIPOS>ATOM
      1 O         142.0338  141.5429  163.2663 O.2     1  UNL1       -0.2522
      2 C         141.0945  142.6872  163.0247 C.2     1  UNL1        0.3078
      3 N         140.0898  143.0667  164.0718 N.am    1  UNL1       -0.2681
      4 N         141.1600  143.4520  161.7360 N.am    1  UNL1       -0.2611
      5 C         142.1648  143.0726  160.6889 C.3     1  UNL1        0.1123
      6 C         142.2302  143.8374  159.4002 C.3     1  UNL1        0.0940
      7 N         141.2909  144.9817  159.1586 N.3     1  UNL1       -0.2697
      8 C         140.2862  145.3611  160.2057 C.3     1  UNL1        0.0940
      9 C         140.2208  144.5963  161.4944 C.3     1  UNL1        0.1123
     10 H         139.4733  143.8177  163.9133 H       1  UNL1        0.1564
     11 C         140.0243  142.3018  165.3606 C.ar    1  UNL1        0.0525
     12 C         140.7458  142.8117  166.5728 C.ar    1  UNL1        0.0156
     13 C         140.6803  142.0469  167.8614 C.ar    1  UNL1        0.0135
     14 C         139.8933  140.7722  167.9379 C.ar    1  UNL1        0.0683
     15 CL        139.8278  140.0074  169.2267 Cl      1  UNL1       -0.0814
     16 C         139.1718  140.2623  166.7257 C.ar    1  UNL1        0.0694
     17 CL        138.3848  138.9877  166.8022 Cl      1  UNL1       -0.0813
     18 C         139.2373  141.0272  165.4370 C.ar    1  UNL1        0.0270
     19 C         141.3564  145.7465  157.8699 C.3     1  UNL1        0.0735
     20 C         140.2015  145.7051  156.9136 C.3     1  UNL1        0.0318
     21 C         139.6965  144.3877  156.4042 C.3     1  UNL1        0.0042
     22 C         138.5415  144.3463  155.4480 C.3     1  UNL1        0.0172
     23 C         137.8916  145.6223  155.0011 C.3     1  UNL1        0.0686
     24 N         138.3967  146.9396  155.5106 N.3     1  UNL1       -0.2974
     25 C         139.5517  146.9810  156.4668 C.3     1  UNL1        0.0699
     26 H         137.6122  147.3955  155.9765 H       1  UNL1        0.1232
@<TRIPOS>BOND
     1     1     2    2
     2     2     3   am
     3     3    11    1
     4    11    12   ar
     5    12    13   ar
     6    13    14   ar
     7    14    15    1
     8    14    16   ar
     9    16    17    1
    10    16    18   ar
    11     2     4   am
    12     4     5    1
    13     5     6    1
    14     6     7    1
    15     7    19    1
    16    19    20    1
    17    20    21    1
    18    21    22    1
    19    22    23    1
    20    23    24    1
    21    24    25    1
    22     7     8    1
    23     8     9    1
    24    18    11   ar
    25     9     4    1
    26    25    20    1
    27     3    10    1
    28    24    26    1
@<TRIPOS>MOLECULE
*****
 26 28 0 0 0
SMALL
GASTEIGER

@<TRIPOS>ATOM
      1 O         141.4837  140.2147  161.0624 O.2     1  UNL1       -0.2522
      2 C         140.4771  139.7769  160.0401 C.2     1  UNL1        0.3078
      3 N         139.0677  140.2853  160.1097 N.am    1  UNL1       -0.2681
      4 N         140.8801  138.8306  158.9481 N.am    1  UNL1       -0.2611
      5 C         142.2895  138.3222  158.8786 C.3     1  UNL1        0.1123
      6 C         142.6924  137.3759  157.7867 C.3     1  UNL1        0.0940
      7 N         141.6858  136.9381  156.7643 N.3     1  UNL1       -0.2697
      8 C         140.2764  137.4466  156.8339 C.3     1  UNL1        0.0940
      9 C         139.8735  138.3928  157.9258 C.3     1  UNL1        0.1123
     10 H         138.4070  139.9980  159.4387 H       1  UNL1        0.1564
     11 C         138.6647  141.2316  161.2016 C.ar    1  UNL1        0.0525
     12 C         137.7834  140.7564  162.3184 C.ar    1  UNL1        0.0156
     13 C         137.3805  141.7027  163.4103 C.ar    1  UNL1        0.0135
     14 C         137.8589  143.1241  163.3853 C.ar    1  UNL1        0.0683
     15 CL        137.4560  144.0704  164.4772 Cl      1  UNL1       -0.0814
     16 C         138.7403  143.5993  162.2685 C.ar    1  UNL1        0.0694
     17 CL        139.2187  145.0207  162.2435 Cl      1  UNL1       -0.0813
     18 C         139.1432  142.6530  161.1766 C.ar    1  UNL1        0.0270
     19 C         142.0888  135.9918  155.6724 C.3     1  UNL1        0.0735
     20 C         142.2352  134.5279  155.9648 C.3     1  UNL1        0.0318
     21 C         141.5705  133.5161  155.0791 C.3     1  UNL1        0.0042
     22 C         141.7169  132.0522  155.3714 C.3     1  UNL1        0.0172
     23 C         142.5280  131.6001  156.5495 C.3     1  UNL1        0.0686
     24 N         143.1927  132.6119  157.4352 N.3     1  UNL1       -0.2974
     25 C         143.0462  134.0759  157.1428 C.3     1  UNL1        0.0699
     26 H         144.1917  132.4068  157.4185 H       1  UNL1        0.1232
@<TRIPOS>BOND
     1     1     2    2
     2     2     3   am
     3     3    11    1
     4    11    12   ar
     5    12    13   ar
     6    13    14   ar
     7    14    15    1
     8    14    16   ar
     9    16    17    1
    10    16    18   ar
    11     2     4   am
    12     4     5    1
    13     5     6    1
    14     6     7    1
    15     7    19    1
    16    19    20    1
    17    20    21    1
    18    21    22    1
    19    22    23    1
    20    23    24    1
    21    24    25    1
    22     7     8    1
    23     8     9    1
    24    18    11   ar
    25     9     4    1
    26    25    20    1
    27     3    10    1
    28    24    26    1
@<TRIPOS>MOLECULE
*****
 26 28 0 0 0
SMALL
GASTEIGER

@<TRIPOS>ATOM
      1 O         143.7267  139.2983  165.0272 O.2     1  UNL1       -0.2522
      2 C         142.9787  140.3689  164.2894 C.2     1  UNL1        0.3078
      3 N         142.1445  141.3589  165.0470 N.am    1  UNL1       -0.2681
      4 N         143.0648  140.4494  162.7940 N.am    1  UNL1       -0.2611
      5 C         143.8989  139.4593  162.0365 C.3     1  UNL1        0.1123
      6 C         143.9850  139.5398  160.5411 C.3     1  UNL1        0.0940
      7 N         143.2369  140.6104  159.8034 N.3     1  UNL1       -0.2697
      8 C         142.4027  141.6004  160.5609 C.3     1  UNL1        0.0940
      9 C         142.3167  141.5199  162.0563 C.3     1  UNL1        0.1123
     10 H         141.6535  142.0616  164.5628 H       1  UNL1        0.1564
     11 C         142.0584  141.2784  166.5424 C.ar    1  UNL1        0.0525
     12 C         140.9072  140.5678  167.1902 C.ar    1  UNL1        0.0156
     13 C         140.8211  140.4874  168.6856 C.ar    1  UNL1        0.0135
     14 C         141.8863  141.1176  169.5331 C.ar    1  UNL1        0.0683
     15 CL        141.8002  141.0371  171.0285 Cl      1  UNL1       -0.0814
     16 C         143.0375  141.8282  168.8853 C.ar    1  UNL1        0.0694
     17 CL        144.1027  142.4583  169.7328 Cl      1  UNL1       -0.0813
     18 C         143.1236  141.9086  167.3900 C.ar    1  UNL1        0.0270
     19 C         143.3230  140.6908  158.3080 C.3     1  UNL1        0.0735
     20 C         144.5578  141.2389  157.6562 C.3     1  UNL1        0.0318
     21 C         145.1263  140.5666  156.4418 C.3     1  UNL1        0.0042
     22 C         146.3611  141.1146  155.7900 C.3     1  UNL1        0.0172
     23 C         147.0275  142.3350  156.3528 C.3     1  UNL1        0.0686
     24 N         146.4591  143.0073  157.5672 N.3     1  UNL1       -0.2974
     25 C         145.2242  142.4592  158.2189 C.3     1  UNL1        0.0699
     26 H         146.2490  143.9691  157.3001 H       1  UNL1        0.1232
@<TRIPOS>BOND
     1     1     2    2
     2     2     3   am
     3     3    11    1
     4    11    12   ar
     5    12    13   ar
     6    13    14   ar
     7    14    15    1
     8    14    16   ar
     9    16    17    1
    10    16    18   ar
    11     2     4   am
    12     4     5    1
    13     5     6    1
    14     6     7    1
    15     7    19    1
    16    19    20    1
    17    20    21    1
    18    21    22    1
    19    22    23    1
    20    23    24    1
    21    24    25    1
    22     7     8    1
    23     8     9    1
    24    18    11   ar
    25     9     4    1
    26    25    20    1
    27     3    10    1
    28    24    26    1
@<TRIPOS>MOLECULE
*****
 26 28 0 0 0
SMALL
GASTEIGER

@<TRIPOS>ATOM
      1 O         140.7767  143.0088  161.4464 O.2     1  UNL1       -0.2522
      2 C         139.8850  142.6828  160.2852 C.2     1  UNL1        0.3078
      3 N         138.9153  141.5424  160.3811 N.am    1  UNL1       -0.2681
      4 N         139.9628  143.4973  159.0279 N.am    1  UNL1       -0.2611
      5 C         140.9324  144.6377  158.9319 C.3     1  UNL1        0.1123
      6 C         141.0102  145.4521  157.6747 C.3     1  UNL1        0.0940
      7 N         140.1185  145.1261  156.5134 N.3     1  UNL1       -0.2697
      8 C         139.1489  143.9857  156.6094 C.3     1  UNL1        0.0940
      9 C         139.0710  143.1713  157.8667 C.3     1  UNL1        0.1123
     10 H         138.3300  141.3285  159.6190 H       1  UNL1        0.1564
     11 C         138.8375  140.7279  161.6384 C.ar    1  UNL1        0.0525
     12 C         137.9924  141.1977  162.7852 C.ar    1  UNL1        0.0156
     13 C         137.9146  140.3832  164.0424 C.ar    1  UNL1        0.0135
     14 C         138.6818  139.0990  164.1528 C.ar    1  UNL1        0.0683
     15 CL        138.6040  138.2845  165.4100 Cl      1  UNL1       -0.0814
     16 C         139.5269  138.6293  163.0060 C.ar    1  UNL1        0.0694
     17 CL        140.2941  137.3451  163.1164 Cl      1  UNL1       -0.0813
     18 C         139.6047  139.4437  161.7488 C.ar    1  UNL1        0.0270
     19 C         140.1963  145.9406  155.2562 C.3     1  UNL1        0.0735
     20 C         139.7484  147.3721  155.2610 C.3     1  UNL1        0.0318
     21 C         140.1516  148.2879  154.1435 C.3     1  UNL1        0.0042
     22 C         139.7037  149.7194  154.1483 C.3     1  UNL1        0.0172
     23 C         138.8526  150.2353  155.2706 C.3     1  UNL1        0.0686
     24 N         138.4494  149.3195  156.3881 N.3     1  UNL1       -0.2974
     25 C         138.8973  147.8879  156.3833 C.3     1  UNL1        0.0699
     26 H         137.4296  149.3089  156.4067 H       1  UNL1        0.1232
@<TRIPOS>BOND
     1     1     2    2
     2     2     3   am
     3     3    11    1
     4    11    12   ar
     5    12    13   ar
     6    13    14   ar
     7    14    15    1
     8    14    16   ar
     9    16    17    1
    10    16    18   ar
    11     2     4   am
    12     4     5    1
    13     5     6    1
    14     6     7    1
    15     7    19    1
    16    19    20    1
    17    20    21    1
    18    21    22    1
    19    22    23    1
    20    23    24    1
    21    24    25    1
    22     7     8    1
    23     8     9    1
    24    18    11   ar
    25     9     4    1
    26    25    20    1
    27     3    10    1
    28    24    26    1
@<TRIPOS>MOLECULE
*****
 26 28 0 0 0
SMALL
GASTEIGER

@<TRIPOS>ATOM
      1 O         138.0953  140.5093  162.6462 O.2     1  UNL1       -0.2522
      2 C         139.2941  139.6735  162.3080 C.2     1  UNL1        0.3078
      3 N         140.1174  139.0648  163.4041 N.am    1  UNL1       -0.2681
      4 N         139.6694  139.4465  160.8735 N.am    1  UNL1       -0.2611
      5 C         138.8461  140.0552  159.7774 C.3     1  UNL1        0.1123
      6 C         139.2215  139.8281  158.3430 C.3     1  UNL1        0.0940
      7 N         140.4202  138.9923  158.0048 N.3     1  UNL1       -0.2697
      8 C         141.2436  138.3836  159.1009 C.3     1  UNL1        0.0940
      9 C         140.8682  138.6107  160.5352 C.3     1  UNL1        0.1123
     10 H         140.9042  138.5163  163.1821 H       1  UNL1        0.1564
     11 C         139.7421  139.2919  164.8385 C.ar    1  UNL1        0.0525
     12 C         140.5022  140.2871  165.6642 C.ar    1  UNL1        0.0156
     13 C         140.1268  140.5141  167.0986 C.ar    1  UNL1        0.0135
     14 C         138.9913  139.7460  167.7073 C.ar    1  UNL1        0.0683
     15 CL        138.6159  139.9731  169.1418 Cl      1  UNL1       -0.0814
     16 C         138.2311  138.7508  166.8816 C.ar    1  UNL1        0.0694
     17 CL        137.0956  137.9826  167.4903 Cl      1  UNL1       -0.0813
     18 C         138.6065  138.5238  165.4473 C.ar    1  UNL1        0.0270
     19 C         140.7956  138.7652  156.5703 C.3     1  UNL1        0.0735
     20 C         141.8835  137.7921  156.2248 C.3     1  UNL1        0.0318
     21 C         141.5704  136.3305  156.0996 C.3     1  UNL1        0.0042
     22 C         142.6583  135.3573  155.7540 C.3     1  UNL1        0.0172
     23 C         144.0594  135.8458  155.5336 C.3     1  UNL1        0.0686
     24 N         144.3725  137.3074  155.6588 N.3     1  UNL1       -0.2974
     25 C         143.2845  138.2806  156.0044 C.3     1  UNL1        0.0699
     26 H         144.7587  137.6037  154.7624 H       1  UNL1        0.1232
@<TRIPOS>BOND
     1     1     2    2
     2     2     3   am
     3     3    11    1
     4    11    12   ar
     5    12    13   ar
     6    13    14   ar
     7    14    15    1
     8    14    16   ar
     9    16    17    1
    10    16    18   ar
    11     2     4   am
    12     4     5    1
    13     5     6    1
    14     6     7    1
    15     7    19    1
    16    19    20    1
    17    20    21    1
    18    21    22    1
    19    22    23    1
    20    23    24    1
    21    24    25    1
    22     7     8    1
    23     8     9    1
    24    18    11   ar
    25     9     4    1
    26    25    20    1
    27     3    10    1
    28    24    26    1
@<TRIPOS>MOLECULE
*****
 26 28 0 0 0
SMALL
GASTEIGER

@<TRIPOS>ATOM
      1 O         140.7556  141.8863  164.6732 O.2     1  UNL1       -0.2522
      2 C         140.6103  140.4535  164.2540 C.2     1  UNL1        0.3078
      3 N         140.6984  139.3601  165.2771 N.am    1  UNL1       -0.2681
      4 N         140.3769  140.1140  162.8116 N.am    1  UNL1       -0.2611
      5 C         140.2888  141.2073  161.7886 C.3     1  UNL1        0.1123
      6 C         140.0554  140.8678  160.3463 C.3     1  UNL1        0.0940
      7 N         139.9100  139.4349  159.9271 N.3     1  UNL1       -0.2697
      8 C         139.9981  138.3416  160.9502 C.3     1  UNL1        0.0940
      9 C         140.2315  138.6811  162.3925 C.3     1  UNL1        0.1123
     10 H         140.6030  138.4196  165.0019 H       1  UNL1        0.1564
     11 C         140.9318  139.6996  166.7195 C.ar    1  UNL1        0.0525
     12 C         142.3312  139.7873  167.2523 C.ar    1  UNL1        0.0156
     13 C         142.5645  140.1267  168.6946 C.ar    1  UNL1        0.0135
     14 C         141.3985  140.3785  169.6040 C.ar    1  UNL1        0.0683
     15 CL        141.6319  140.7180  171.0464 Cl      1  UNL1       -0.0814
     16 C         139.9991  140.2908  169.0712 C.ar    1  UNL1        0.0694
     17 CL        138.8331  140.5426  169.9806 Cl      1  UNL1       -0.0813
     18 C         139.7658  139.9513  167.6289 C.ar    1  UNL1        0.0270
     19 C         139.6766  139.0954  158.4847 C.3     1  UNL1        0.0735
     20 C         140.6926  138.2906  157.7298 C.3     1  UNL1        0.0318
     21 C         140.2460  137.2902  156.7052 C.3     1  UNL1        0.0042
     22 C         141.2620  136.4854  155.9502 C.3     1  UNL1        0.0172
     23 C         142.7246  136.6810  156.2198 C.3     1  UNL1        0.0686
     24 N         143.1712  137.6814  157.2444 N.3     1  UNL1       -0.2974
     25 C         142.1551  138.4862  157.9994 C.3     1  UNL1        0.0699
     26 H         143.7750  138.3472  156.7622 H       1  UNL1        0.1232
@<TRIPOS>BOND
     1     1     2    2
     2     2     3   am
     3     3    11    1
     4    11    12   ar
     5    12    13   ar
     6    13    14   ar
     7    14    15    1
     8    14    16   ar
     9    16    17    1
    10    16    18   ar
    11     2     4   am
    12     4     5    1
    13     5     6    1
    14     6     7    1
    15     7    19    1
    16    19    20    1
    17    20    21    1
    18    21    22    1
    19    22    23    1
    20    23    24    1
    21    24    25    1
    22     7     8    1
    23     8     9    1
    24    18    11   ar
    25     9     4    1
    26    25    20    1
    27     3    10    1
    28    24    26    1
