@<TRIPOS>MOLECULE
*****
 34 39 0 0 0
SMALL
GASTEIGER

@<TRIPOS>ATOM
      1 C         142.6193  137.9031  157.3364 C.ar    1  UNL1        0.1028
      2 C         142.8339  138.5173  155.9849 C.ar    1  UNL1        0.0131
      3 C         142.5335  139.9704  155.7651 C.ar    1  UNL1       -0.0015
      4 C         142.0071  141.0832  156.6886 C.ar    1  UNL1        0.0035
      5 C         142.1562  139.7490  157.3577 C.ar    1  UNL1        0.0358
      6 C         142.1043  138.7420  158.4683 C.ar    1  UNL1        0.1545
      7 O         141.8594  138.2158  159.8513 O.3     1  UNL1       -0.4528
      8 C         141.4587  138.2502  161.2965 C.ar    1  UNL1        0.1450
      9 C         141.3600  137.1733  162.6437 C.ar    1  UNL1        0.0372
     10 C         140.9198  137.3988  164.0598 C.ar    1  UNL1       -0.0014
     11 C         140.4643  138.7598  164.4958 C.ar    1  UNL1       -0.0244
     12 C         140.4485  139.8959  163.5166 C.ar    1  UNL1       -0.0052
     13 C         140.9633  138.8403  162.5835 C.ar    1  UNL1        0.0345
     14 C         139.9928  141.2566  163.9536 C.3     1  UNL1        0.0977
     15 C         139.5528  141.4811  165.3699 C.3     1  UNL1        0.0247
     16 C         139.5686  140.3450  166.3492 C.3     1  UNL1        0.0067
     17 C         140.0243  138.9844  165.9122 C.3     1  UNL1        0.0262
     18 N         139.6655  142.7150  163.8280 N.am    1  UNL1       -0.2763
     19 C         139.1604  143.8818  164.6240 C.3     1  UNL1        0.0956
     20 C         139.1108  145.0752  163.7168 C.3     1  UNL1        0.0466
     21 C         139.5683  145.0562  162.0484 C.3     1  UNL1        0.1337
     22 N         139.8132  145.5825  160.6652 N.3     1  UNL1       -0.2863
     23 C         140.2139  145.5479  159.2202 C.3     1  UNL1        0.1151
     24 C         140.7093  144.9580  157.9331 C.ar    1  UNL1        0.0739
     25 C         140.5996  146.2418  157.1652 C.ar    1  UNL1        0.1147
     26 N         141.0465  145.9796  155.7576 N.ar    1  UNL1       -0.2226
     27 C         141.4325  144.5337  155.6555 C.ar    1  UNL1        0.1786
     28 N         141.2241  143.9023  157.0001 N.ar    1  UNL1       -0.3070
     29 C         141.6798  142.5416  156.5631 C.3     1  UNL1        0.1341
     30 C         139.5164  144.0493  163.1590 C.2     1  UNL1        0.2401
     31 O         139.2572  144.3284  163.8593 O.2     1  UNL1       -0.2734
     32 H         140.4382  146.3404  160.9397 H       1  UNL1        0.1240
     33 N         143.2201  134.9970  157.7761 N.1     1  UNL1       -0.1907
     34 C         142.9197  136.4500  157.5563 C.1     1  UNL1        0.1035
@<TRIPOS>BOND
     1    33    34    3
     2    34     1    1
     3     1     2   ar
     4     2     3   ar
     5     3     4   ar
     6     4     5   ar
     7     5     6   ar
     8     6     7    1
     9     7     8    1
    10     8     9   ar
    11     9    10   ar
    12    10    11   ar
    13    11    12   ar
    14    12    13   ar
    15    12    14    1
    16    14    15    1
    17    15    16    1
    18    16    17    1
    19    14    18    1
    20    18    19    1
    21    19    20    1
    22    21    20    1
    23    21    22    1
    24    22    23    1
    25    23    24    1
    26    24    25   ar
    27    25    26   ar
    28    26    27   ar
    29    27    28   ar
    30    28    29    1
    31    21    30    1
    32    30    31    2
    33     6     1   ar
    34    13     8   ar
    35    30    18   am
    36    29     4    1
    37    17    11    1
    38    28    24   ar
    39    22    32    1
@<TRIPOS>MOLECULE
*****
 34 39 0 0 0
SMALL
GASTEIGER

@<TRIPOS>ATOM
      1 C         140.1965  144.7271  156.6801 C.ar    1  UNL1        0.1028
      2 C         140.5326  144.1258  155.3478 C.ar    1  UNL1        0.0131
      3 C         141.0417  142.7171  155.2675 C.ar    1  UNL1       -0.0015
      4 C         141.3265  141.6434  156.3326 C.ar    1  UNL1        0.0035
      5 C         140.8142  142.9390  156.8883 C.ar    1  UNL1        0.0358
      6 C         140.3693  143.9198  157.9325 C.ar    1  UNL1        0.1545
      7 O         140.0596  144.4361  159.3063 O.3     1  UNL1       -0.4528
      8 C         139.9322  144.4095  160.8007 C.ar    1  UNL1        0.1450
      9 C         139.4411  145.4591  162.0819 C.ar    1  UNL1        0.0372
     10 C         139.3807  145.2473  163.5656 C.ar    1  UNL1       -0.0014
     11 C         139.7957  143.9309  164.1528 C.ar    1  UNL1       -0.0244
     12 C         140.2714  142.8257  163.2571 C.ar    1  UNL1       -0.0052
     13 C         140.0066  143.8440  162.1880 C.ar    1  UNL1        0.0345
     14 C         140.6862  141.5096  163.8453 C.3     1  UNL1        0.0977
     15 C         140.6255  141.2987  165.3291 C.3     1  UNL1        0.0247
     16 C         140.1498  142.4039  166.2248 C.3     1  UNL1        0.0067
     17 C         139.7350  143.7200  165.6367 C.3     1  UNL1        0.0262
     18 N         141.1880  140.0961  163.8628 N.am    1  UNL1       -0.2763
     19 C         141.5033  138.9696  164.8018 C.3     1  UNL1        0.0956
     20 C         141.9912  137.8092  163.9862 C.3     1  UNL1        0.0466
     21 C         142.1453  137.8198  162.2630 C.3     1  UNL1        0.1337
     22 N         142.4550  137.3035  160.8891 N.3     1  UNL1       -0.2863
     23 C         142.5823  137.3301  159.3948 C.3     1  UNL1        0.1151
     24 C         142.5080  137.8956  158.0074 C.ar    1  UNL1        0.0739
     25 C         143.0129  136.6482  157.3447 C.ar    1  UNL1        0.1147
     26 N         143.0602  136.8956  155.8661 N.ar    1  UNL1       -0.2226
     27 C         142.5845  138.2959  155.6149 C.ar    1  UNL1        0.1786
     28 N         142.2432  138.9139  156.9384 N.ar    1  UNL1       -0.3070
     29 C         141.8283  140.2299  156.3502 C.3     1  UNL1        0.1341
     30 C         141.7004  138.8004  163.3073 C.2     1  UNL1        0.2401
     31 O         141.7268  138.5333  164.0579 O.2     1  UNL1       -0.2734
     32 H         141.8568  136.4788  160.9388 H       1  UNL1        0.1240
     33 N         139.1783  147.5445  156.8405 N.1     1  UNL1       -0.1907
     34 C         139.6874  146.1358  156.7604 C.1     1  UNL1        0.1035
@<TRIPOS>BOND
     1    33    34    3
     2    34     1    1
     3     1     2   ar
     4     2     3   ar
     5     3     4   ar
     6     4     5   ar
     7     5     6   ar
     8     6     7    1
     9     7     8    1
    10     8     9   ar
    11     9    10   ar
    12    10    11   ar
    13    11    12   ar
    14    12    13   ar
    15    12    14    1
    16    14    15    1
    17    15    16    1
    18    16    17    1
    19    14    18    1
    20    18    19    1
    21    19    20    1
    22    21    20    1
    23    21    22    1
    24    22    23    1
    25    23    24    1
    26    24    25   ar
    27    25    26   ar
    28    26    27   ar
    29    27    28   ar
    30    28    29    1
    31    21    30    1
    32    30    31    2
    33     6     1   ar
    34    13     8   ar
    35    30    18   am
    36    29     4    1
    37    17    11    1
    38    28    24   ar
    39    22    32    1
@<TRIPOS>MOLECULE
*****
 34 39 0 0 0
SMALL
GASTEIGER

@<TRIPOS>ATOM
      1 C         139.6112  146.9694  156.2983 C.ar    1  UNL1        0.1028
      2 C         139.7647  146.8139  154.8144 C.ar    1  UNL1        0.0131
      3 C         140.4786  145.6190  154.2553 C.ar    1  UNL1       -0.0015
      4 C         141.1539  144.4007  154.9095 C.ar    1  UNL1        0.0035
      5 C         140.5535  145.3681  155.8860 C.ar    1  UNL1        0.0358
      6 C         140.1716  145.9301  157.2233 C.ar    1  UNL1        0.1545
      7 O         140.0666  146.0009  158.7179 O.3     1  UNL1       -0.4528
      8 C         140.2544  145.5698  160.1424 C.ar    1  UNL1        0.1450
      9 C         139.8647  146.1266  161.7306 C.ar    1  UNL1        0.0372
     10 C         140.1464  145.5385  163.0815 C.ar    1  UNL1       -0.0014
     11 C         140.8906  144.2410  163.1942 C.ar    1  UNL1       -0.0244
     12 C         141.3537  143.5310  161.9568 C.ar    1  UNL1       -0.0052
     13 C         140.7063  144.7025  161.2796 C.ar    1  UNL1        0.0345
     14 C         142.0980  142.2336  162.0705 C.3     1  UNL1        0.0977
     15 C         142.3791  141.6462  163.4218 C.3     1  UNL1        0.0247
     16 C         141.9160  142.3563  164.6593 C.3     1  UNL1        0.0067
     17 C         141.1718  143.6537  164.5455 C.3     1  UNL1        0.0262
     18 N         142.8257  141.0079  161.6036 N.am    1  UNL1       -0.2763
     19 C         143.5135  139.7784  162.1188 C.3     1  UNL1        0.0956
     20 C         144.0143  138.9988  160.9393 C.3     1  UNL1        0.0466
     21 C         143.8081  139.4785  159.2899 C.3     1  UNL1        0.1337
     22 N         143.9131  139.4077  157.7952 N.3     1  UNL1       -0.2863
     23 C         143.7253  139.8388  156.3708 C.3     1  UNL1        0.1151
     24 C         143.2733  140.7061  155.2335 C.ar    1  UNL1        0.0739
     25 C         143.8365  139.8096  154.1708 C.ar    1  UNL1        0.1147
     26 N         143.5372  140.4271  152.8370 N.ar    1  UNL1       -0.2226
     27 C         142.7890  141.7052  153.0753 C.ar    1  UNL1        0.1786
     28 N         142.6259  141.8776  154.5564 N.ar    1  UNL1       -0.3070
     29 C         141.8817  143.1750  154.4427 C.3     1  UNL1        0.1341
     30 C         143.4262  140.0404  160.6272 C.2     1  UNL1        0.2401
     31 O         143.6508  139.6047  161.2558 O.2     1  UNL1       -0.2734
     32 H         143.4870  138.4866  157.6936 H       1  UNL1        0.1240
     33 N         138.1834  149.3593  157.4164 N.1     1  UNL1       -0.1907
     34 C         138.8973  148.1643  156.8574 C.1     1  UNL1        0.1035
@<TRIPOS>BOND
     1    33    34    3
     2    34     1    1
     3     1     2   ar
     4     2     3   ar
     5     3     4   ar
     6     4     5   ar
     7     5     6   ar
     8     6     7    1
     9     7     8    1
    10     8     9   ar
    11     9    10   ar
    12    10    11   ar
    13    11    12   ar
    14    12    13   ar
    15    12    14    1
    16    14    15    1
    17    15    16    1
    18    16    17    1
    19    14    18    1
    20    18    19    1
    21    19    20    1
    22    21    20    1
    23    21    22    1
    24    22    23    1
    25    23    24    1
    26    24    25   ar
    27    25    26   ar
    28    26    27   ar
    29    27    28   ar
    30    28    29    1
    31    21    30    1
    32    30    31    2
    33     6     1   ar
    34    13     8   ar
    35    30    18   am
    36    29     4    1
    37    17    11    1
    38    28    24   ar
    39    22    32    1
@<TRIPOS>MOLECULE
*****
 34 39 0 0 0
SMALL
GASTEIGER

@<TRIPOS>ATOM
      1 C         142.3767  137.5670  156.7918 C.ar    1  UNL1        0.1028
      2 C         142.0409  137.8556  155.3588 C.ar    1  UNL1        0.0131
      3 C         141.5189  139.2065  154.9681 C.ar    1  UNL1       -0.0015
      4 C         141.2190  140.4860  155.7690 C.ar    1  UNL1        0.0035
      5 C         141.7411  139.3504  156.5983 C.ar    1  UNL1        0.0358
      6 C         142.1906  138.6292  157.8344 C.ar    1  UNL1        0.1545
      7 O         142.4989  138.4324  159.2891 O.3     1  UNL1       -0.4528
      8 C         142.6193  138.7897  160.7410 C.ar    1  UNL1        0.1450
      9 C         143.1145  138.0542  162.2235 C.ar    1  UNL1        0.0372
     10 C         143.1663  138.5891  163.6239 C.ar    1  UNL1       -0.0014
     11 C         142.7361  139.9984  163.9048 C.ar    1  UNL1       -0.0244
     12 C         142.2541  140.8735  162.7860 C.ar    1  UNL1       -0.0052
     13 C         142.5333  139.6470  161.9688 C.ar    1  UNL1        0.0345
     14 C         141.8241  142.2827  163.0678 C.3     1  UNL1        0.0977
     15 C         141.8762  142.8168  164.4686 C.3     1  UNL1        0.0247
     16 C         142.3582  141.9417  165.5874 C.3     1  UNL1        0.0067
     17 C         142.7882  140.5325  165.3055 C.3     1  UNL1        0.0262
     18 N         141.3089  143.6599  162.7715 N.am    1  UNL1       -0.2763
     19 C         140.9787  144.9627  163.4376 C.3     1  UNL1        0.0956
     20 C         140.4835  145.9093  162.3847 C.3     1  UNL1        0.0466
     21 C         140.3374  145.5167  160.7060 C.3     1  UNL1        0.1337
     22 N         140.0290  145.7135  159.2513 N.3     1  UNL1       -0.2863
     23 C         139.9086  145.3561  157.7995 C.3     1  UNL1        0.1151
     24 C         139.9946  144.4989  156.5716 C.ar    1  UNL1        0.0739
     25 C         139.4809  145.5638  155.6485 C.ar    1  UNL1        0.1147
     26 N         139.4426  144.9954  154.2609 N.ar    1  UNL1       -0.2226
     27 C         139.9327  143.5792  154.3264 C.ar    1  UNL1        0.1786
     28 N         140.2738  143.2724  155.7545 N.ar    1  UNL1       -0.3070
     29 C         140.7038  141.8632  155.4727 C.3     1  UNL1        0.1341
     30 C         140.7868  144.7955  161.9422 C.2     1  UNL1        0.2401
     31 O         140.7545  145.2216  162.6151 O.2     1  UNL1       -0.2734
     32 H         140.6191  146.5349  159.1189 H       1  UNL1        0.1240
     33 N         143.4208  134.8653  157.5733 N.1     1  UNL1       -0.1907
     34 C         142.8987  136.2161  157.1825 C.1     1  UNL1        0.1035
@<TRIPOS>BOND
     1    33    34    3
     2    34     1    1
     3     1     2   ar
     4     2     3   ar
     5     3     4   ar
     6     4     5   ar
     7     5     6   ar
     8     6     7    1
     9     7     8    1
    10     8     9   ar
    11     9    10   ar
    12    10    11   ar
    13    11    12   ar
    14    12    13   ar
    15    12    14    1
    16    14    15    1
    17    15    16    1
    18    16    17    1
    19    14    18    1
    20    18    19    1
    21    19    20    1
    22    21    20    1
    23    21    22    1
    24    22    23    1
    25    23    24    1
    26    24    25   ar
    27    25    26   ar
    28    26    27   ar
    29    27    28   ar
    30    28    29    1
    31    21    30    1
    32    30    31    2
    33     6     1   ar
    34    13     8   ar
    35    30    18   am
    36    29     4    1
    37    17    11    1
    38    28    24   ar
    39    22    32    1
@<TRIPOS>MOLECULE
*****
 34 39 0 0 0
SMALL
GASTEIGER

@<TRIPOS>ATOM
      1 C         142.6172  136.2796  156.6522 C.ar    1  UNL1        0.1028
      2 C         142.0933  136.2278  155.2477 C.ar    1  UNL1        0.0131
      3 C         141.4120  137.4263  154.6566 C.ar    1  UNL1       -0.0015
      4 C         141.0950  138.8286  155.2056 C.ar    1  UNL1        0.0035
      5 C         141.8081  137.9354  156.1770 C.ar    1  UNL1        0.0358
      6 C         142.4600  137.5300  157.4657 C.ar    1  UNL1        0.1545
      7 O         142.9511  137.6742  158.8756 O.3     1  UNL1       -0.4528
      8 C         143.2069  138.3461  160.1921 C.ar    1  UNL1        0.1450
      9 C         143.9339  137.9832  161.7167 C.ar    1  UNL1        0.0372
     10 C         144.1002  138.8126  162.9554 C.ar    1  UNL1       -0.0014
     11 C         143.5824  140.2200  162.9907 C.ar    1  UNL1       -0.0244
     12 C         142.8984  140.7988  161.7878 C.ar    1  UNL1       -0.0052
     13 C         143.1884  139.4433  161.2147 C.ar    1  UNL1        0.0345
     14 C         142.3809  142.2063  161.8241 C.3     1  UNL1        0.0977
     15 C         142.5476  143.0350  163.0633 C.3     1  UNL1        0.0247
     16 C         143.2317  142.4561  164.2661 C.3     1  UNL1        0.0067
     17 C         143.7491  141.0486  164.2299 C.3     1  UNL1        0.0262
     18 N         141.7150  143.4515  161.3180 N.am    1  UNL1       -0.2763
     19 C         141.3503  144.8453  161.7356 C.3     1  UNL1        0.0956
     20 C         140.6545  145.5073  160.5835 C.3     1  UNL1        0.0466
     21 C         140.3500  144.7501  159.0580 C.3     1  UNL1        0.1337
     22 N         139.8588  144.6058  157.6480 N.3     1  UNL1       -0.2863
     23 C         139.6030  143.9340  156.3315 C.3     1  UNL1        0.1151
     24 C         139.6215  142.8367  155.3089 C.ar    1  UNL1        0.0739
     25 C         138.9120  143.6412  154.2603 C.ar    1  UNL1        0.1147
     26 N         138.7635  142.7828  153.0392 N.ar    1  UNL1       -0.2226
     27 C         139.3813  141.4478  153.3331 C.ar    1  UNL1        0.1786
     28 N         139.9116  141.4812  154.7358 N.ar    1  UNL1       -0.3070
     29 C         140.4290  140.0737  154.6996 C.3     1  UNL1        0.1341
     30 C         141.0018  144.3447  160.3467 C.2     1  UNL1        0.2401
     31 O         141.0101  144.9044  160.9143 O.2     1  UNL1       -0.2734
     32 H         140.3545  145.4134  157.2705 H       1  UNL1        0.1240
     33 N         143.9799  133.8826  157.8343 N.1     1  UNL1       -0.1907
     34 C         143.2985  135.0811  157.2433 C.1     1  UNL1        0.1035
@<TRIPOS>BOND
     1    33    34    3
     2    34     1    1
     3     1     2   ar
     4     2     3   ar
     5     3     4   ar
     6     4     5   ar
     7     5     6   ar
     8     6     7    1
     9     7     8    1
    10     8     9   ar
    11     9    10   ar
    12    10    11   ar
    13    11    12   ar
    14    12    13   ar
    15    12    14    1
    16    14    15    1
    17    15    16    1
    18    16    17    1
    19    14    18    1
    20    18    19    1
    21    19    20    1
    22    21    20    1
    23    21    22    1
    24    22    23    1
    25    23    24    1
    26    24    25   ar
    27    25    26   ar
    28    26    27   ar
    29    27    28   ar
    30    28    29    1
    31    21    30    1
    32    30    31    2
    33     6     1   ar
    34    13     8   ar
    35    30    18   am
    36    29     4    1
    37    17    11    1
    38    28    24   ar
    39    22    32    1
@<TRIPOS>MOLECULE
*****
 34 39 0 0 0
SMALL
GASTEIGER

@<TRIPOS>ATOM
      1 C         145.4836  142.4813  157.3466 C.ar    1  UNL1        0.1028
      2 C         145.0384  142.4367  155.9150 C.ar    1  UNL1        0.0131
      3 C         143.6085  142.1276  155.5834 C.ar    1  UNL1       -0.0015
      4 C         142.3754  141.8163  156.4499 C.ar    1  UNL1        0.0035
      5 C         143.6292  142.0681  157.2338 C.ar    1  UNL1        0.0358
      6 C         144.4990  142.2168  158.4468 C.ar    1  UNL1        0.1545
      7 O         144.8520  142.2397  159.9045 O.3     1  UNL1       -0.4528
      8 C         144.6347  142.1333  161.3849 C.ar    1  UNL1        0.1450
      9 C         145.5447  142.2814  162.8458 C.ar    1  UNL1        0.0372
     10 C         145.1394  142.1344  164.2825 C.ar    1  UNL1       -0.0014
     11 C         143.7190  141.8010  164.6307 C.ar    1  UNL1       -0.0244
     12 C         142.7031  141.6146  163.5430 C.ar    1  UNL1       -0.0052
     13 C         143.8801  141.9138  162.6625 C.ar    1  UNL1        0.0345
     14 C         141.2829  141.2812  163.8922 C.3     1  UNL1        0.0977
     15 C         140.8786  141.1344  165.3292 C.3     1  UNL1        0.0247
     16 C         141.8944  141.3208  166.4169 C.3     1  UNL1        0.0067
     17 C         143.3147  141.6542  166.0677 C.3     1  UNL1        0.0262
     18 N         139.8357  140.9645  163.6570 N.am    1  UNL1       -0.2763
     19 C         138.5646  140.6499  164.3887 C.3     1  UNL1        0.0956
     20 C         137.4821  140.4457  163.3708 C.3     1  UNL1        0.0466
     21 C         137.7122  140.5640  161.6601 C.3     1  UNL1        0.1337
     22 N         137.3591  140.5411  160.2024 N.3     1  UNL1       -0.2863
     23 C         137.5764  140.6476  158.7220 C.3     1  UNL1        0.1151
     24 C         138.3310  140.8671  157.4444 C.ar    1  UNL1        0.0739
     25 C         137.1402  140.6332  156.5627 C.ar    1  UNL1        0.1147
     26 N         137.5812  140.7879  155.1374 N.ar    1  UNL1       -0.2226
     27 C         139.0446  141.1173  155.1381 C.ar    1  UNL1        0.1786
     28 N         139.5080  141.1663  156.5639 N.ar    1  UNL1       -0.3070
     29 C         140.9282  141.4996  156.2147 C.3     1  UNL1        0.1341
     30 C         138.5818  140.7127  162.8732 C.2     1  UNL1        0.2401
     31 O         138.2133  140.6026  163.5714 O.2     1  UNL1       -0.2734
     32 H         136.6024  141.2229  160.2567 H       1  UNL1        0.1240
     33 N         148.3433  143.0994  158.0098 N.1     1  UNL1       -0.1907
     34 C         146.9135  142.7903  157.6782 C.1     1  UNL1        0.1035
@<TRIPOS>BOND
     1    33    34    3
     2    34     1    1
     3     1     2   ar
     4     2     3   ar
     5     3     4   ar
     6     4     5   ar
     7     5     6   ar
     8     6     7    1
     9     7     8    1
    10     8     9   ar
    11     9    10   ar
    12    10    11   ar
    13    11    12   ar
    14    12    13   ar
    15    12    14    1
    16    14    15    1
    17    15    16    1
    18    16    17    1
    19    14    18    1
    20    18    19    1
    21    19    20    1
    22    21    20    1
    23    21    22    1
    24    22    23    1
    25    23    24    1
    26    24    25   ar
    27    25    26   ar
    28    26    27   ar
    29    27    28   ar
    30    28    29    1
    31    21    30    1
    32    30    31    2
    33     6     1   ar
    34    13     8   ar
    35    30    18   am
    36    29     4    1
    37    17    11    1
    38    28    24   ar
    39    22    32    1
@<TRIPOS>MOLECULE
*****
 34 39 0 0 0
SMALL
GASTEIGER

@<TRIPOS>ATOM
      1 C         146.5575  142.4462  157.4747 C.ar    1  UNL1        0.1028
      2 C         146.7349  141.8125  156.1268 C.ar    1  UNL1        0.0131
      3 C         145.7173  140.8350  155.6177 C.ar    1  UNL1       -0.0015
      4 C         144.4110  140.2779  156.2106 C.ar    1  UNL1        0.0035
      5 C         145.1198  141.2572  157.0985 C.ar    1  UNL1        0.0358
      6 C         145.3625  142.1025  158.3137 C.ar    1  UNL1        0.1545
      7 O         145.1019  142.6849  159.6711 O.3     1  UNL1       -0.4528
      8 C         144.3778  142.9160  160.9644 C.ar    1  UNL1        0.1450
      9 C         144.5604  143.8479  162.4074 C.ar    1  UNL1        0.0372
     10 C         143.7026  143.9504  163.6336 C.ar    1  UNL1       -0.0014
     11 C         142.4396  143.1474  163.7346 C.ar    1  UNL1       -0.0244
     12 C         142.0337  142.2417  162.6100 C.ar    1  UNL1       -0.0052
     13 C         143.3004  142.7603  161.9963 C.ar    1  UNL1        0.0345
     14 C         140.7706  141.4391  162.7119 C.3     1  UNL1        0.0977
     15 C         139.9133  141.5423  163.9385 C.3     1  UNL1        0.0247
     16 C         140.3193  142.4480  165.0631 C.3     1  UNL1        0.0067
     17 C         141.5824  143.2506  164.9612 C.3     1  UNL1        0.0262
     18 N         139.7033  140.4747  162.2865 N.am    1  UNL1       -0.2763
     19 C         138.4169  139.8603  162.7531 C.3     1  UNL1        0.0956
     20 C         137.9318  138.9302  161.6810 C.3     1  UNL1        0.0466
     21 C         138.7518  138.6501  160.1835 C.3     1  UNL1        0.1337
     22 N         139.0124  138.0676  158.8260 N.3     1  UNL1       -0.2863
     23 C         139.7365  137.8366  157.5328 C.3     1  UNL1        0.1151
     24 C         140.8139  137.9922  156.5008 C.ar    1  UNL1        0.0739
     25 C         140.1917  137.0281  155.5348 C.ar    1  UNL1        0.1147
     26 N         141.0738  136.9508  154.3241 N.ar    1  UNL1       -0.2226
     27 C         142.2412  137.8672  154.5419 C.ar    1  UNL1        0.1786
     28 N         142.0806  138.5109  155.8872 N.ar    1  UNL1       -0.3070
     29 C         143.3437  139.3135  155.7853 C.3     1  UNL1        0.1341
     30 C         138.9944  139.4953  161.3987 C.2     1  UNL1        0.2401
     31 O         138.4406  139.4377  161.9691 O.2     1  UNL1       -0.2734
     32 H         138.1207  138.3388  158.4115 H       1  UNL1        0.1240
     33 N         148.5926  144.4011  158.4929 N.1     1  UNL1       -0.1907
     34 C         147.5751  143.4236  157.9837 C.1     1  UNL1        0.1035
@<TRIPOS>BOND
     1    33    34    3
     2    34     1    1
     3     1     2   ar
     4     2     3   ar
     5     3     4   ar
     6     4     5   ar
     7     5     6   ar
     8     6     7    1
     9     7     8    1
    10     8     9   ar
    11     9    10   ar
    12    10    11   ar
    13    11    12   ar
    14    12    13   ar
    15    12    14    1
    16    14    15    1
    17    15    16    1
    18    16    17    1
    19    14    18    1
    20    18    19    1
    21    19    20    1
    22    21    20    1
    23    21    22    1
    24    22    23    1
    25    23    24    1
    26    24    25   ar
    27    25    26   ar
    28    26    27   ar
    29    27    28   ar
    30    28    29    1
    31    21    30    1
    32    30    31    2
    33     6     1   ar
    34    13     8   ar
    35    30    18   am
    36    29     4    1
    37    17    11    1
    38    28    24   ar
    39    22    32    1
@<TRIPOS>MOLECULE
*****
 34 39 0 0 0
SMALL
GASTEIGER

@<TRIPOS>ATOM
      1 C         143.3088  139.9752  161.6987 C.ar    1  UNL1        0.1028
      2 C         143.7205  138.5345  161.7671 C.ar    1  UNL1        0.0131
      3 C         143.4894  137.6318  160.5917 C.ar    1  UNL1       -0.0015
      4 C         142.8705  137.8593  159.2012 C.ar    1  UNL1        0.0035
      5 C         142.8936  139.0813  160.0706 C.ar    1  UNL1        0.0358
      6 C         142.6659  140.5133  160.4548 C.ar    1  UNL1        0.1545
      7 O         142.2221  141.9372  160.2952 O.3     1  UNL1       -0.4528
      8 C         141.6297  143.1363  159.6160 C.ar    1  UNL1        0.1450
      9 C         141.3217  144.8019  159.9553 C.ar    1  UNL1        0.0372
     10 C         140.6989  145.8822  159.1216 C.ar    1  UNL1       -0.0014
     11 C         140.2227  145.5769  157.7324 C.ar    1  UNL1       -0.0244
     12 C         140.3687  144.1917  157.1759 C.ar    1  UNL1       -0.0052
     13 C         140.9789  143.9279  158.5206 C.ar    1  UNL1        0.0345
     14 C         139.8922  143.8874  155.7866 C.3     1  UNL1        0.0977
     15 C         139.2695  144.9683  154.9536 C.3     1  UNL1        0.0247
     16 C         139.1235  146.3536  155.5100 C.3     1  UNL1        0.0067
     17 C         139.6000  146.6579  156.8994 C.3     1  UNL1        0.0262
     18 N         139.6218  143.0613  154.5641 N.am    1  UNL1       -0.2763
     19 C         139.0426  143.1548  153.1835 C.3     1  UNL1        0.0956
     20 C         139.1469  141.8019  152.5445 C.3     1  UNL1        0.0466
     21 C         139.8263  140.4072  153.3104 C.3     1  UNL1        0.1337
     22 N         140.2702  138.9833  153.4701 N.3     1  UNL1       -0.2863
     23 C         140.8626  137.7843  154.1493 C.3     1  UNL1        0.1151
     24 C         141.5134  136.9926  155.2446 C.ar    1  UNL1        0.0739
     25 C         141.5414  135.7122  154.4637 C.ar    1  UNL1        0.1147
     26 N         142.1689  134.6572  155.3258 N.ar    1  UNL1       -0.2226
     27 C         142.5286  135.2855  156.6395 C.ar    1  UNL1        0.1786
     28 N         142.1235  136.7289  156.5893 N.ar    1  UNL1       -0.3070
     29 C         142.6001  137.0332  157.9787 C.3     1  UNL1        0.1341
     30 C         139.5986  141.8392  153.6946 C.2     1  UNL1        0.2401
     31 O         139.2538  142.2906  153.1353 O.2     1  UNL1       -0.2734
     32 H         140.8709  138.9571  152.6462 H       1  UNL1        0.1240
     33 N         143.7709  141.7808  164.0495 N.1     1  UNL1       -0.1907
     34 C         143.5398  140.8780  162.8742 C.1     1  UNL1        0.1035
@<TRIPOS>BOND
     1    33    34    3
     2    34     1    1
     3     1     2   ar
     4     2     3   ar
     5     3     4   ar
     6     4     5   ar
     7     5     6   ar
     8     6     7    1
     9     7     8    1
    10     8     9   ar
    11     9    10   ar
    12    10    11   ar
    13    11    12   ar
    14    12    13   ar
    15    12    14    1
    16    14    15    1
    17    15    16    1
    18    16    17    1
    19    14    18    1
    20    18    19    1
    21    19    20    1
    22    21    20    1
    23    21    22    1
    24    22    23    1
    25    23    24    1
    26    24    25   ar
    27    25    26   ar
    28    26    27   ar
    29    27    28   ar
    30    28    29    1
    31    21    30    1
    32    30    31    2
    33     6     1   ar
    34    13     8   ar
    35    30    18   am
    36    29     4    1
    37    17    11    1
    38    28    24   ar
    39    22    32    1
@<TRIPOS>MOLECULE
*****
 34 39 0 0 0
SMALL
GASTEIGER

@<TRIPOS>ATOM
      1 C         142.0918  143.5297  161.3745 C.ar    1  UNL1        0.1028
      2 C         140.6498  143.4362  161.7766 C.ar    1  UNL1        0.0131
      3 C         139.6448  142.8446  160.8331 C.ar    1  UNL1       -0.0015
      4 C         139.7578  142.2559  159.4157 C.ar    1  UNL1        0.0035
      5 C         141.0581  142.7409  159.9847 C.ar    1  UNL1        0.0358
      6 C         142.5290  143.0317  160.0288 C.ar    1  UNL1        0.1545
      7 O         143.9465  143.0839  159.5411 O.3     1  UNL1       -0.4528
      8 C         145.0949  142.8895  158.5958 C.ar    1  UNL1        0.1450
      9 C         146.7969  143.1807  158.5416 C.ar    1  UNL1        0.0372
     10 C         147.8131  142.9086  157.4724 C.ar    1  UNL1       -0.0014
     11 C         147.3907  142.2748  156.1801 C.ar    1  UNL1       -0.0244
     12 C         145.9525  141.9126  155.9562 C.ar    1  UNL1       -0.0052
     13 C         145.7992  142.4782  157.3370 C.ar    1  UNL1        0.0345
     14 C         145.5310  141.2788  154.6636 C.3     1  UNL1        0.0977
     15 C         146.5480  141.0071  153.5950 C.3     1  UNL1        0.0247
     16 C         147.9862  141.3692  153.8189 C.3     1  UNL1        0.0067
     17 C         148.4076  142.0030  155.1115 C.3     1  UNL1        0.0262
     18 N         144.5992  140.6733  153.6561 N.am    1  UNL1       -0.2763
     19 C         144.5784  140.0774  152.2797 C.3     1  UNL1        0.0956
     20 C         143.1657  139.6819  151.9671 C.3     1  UNL1        0.0466
     21 C         141.8280  139.8974  153.0430 C.3     1  UNL1        0.1337
     22 N         140.4105  139.8452  153.5307 N.3     1  UNL1       -0.2863
     23 C         139.2621  140.0396  154.4760 C.3     1  UNL1        0.1151
     24 C         138.5577  140.4509  155.7348 C.ar    1  UNL1        0.0739
     25 C         137.2062  139.9995  155.2662 C.ar    1  UNL1        0.1147
     26 N         136.2177  140.2862  156.3574 N.ar    1  UNL1       -0.2226
     27 C         136.9584  140.9147  157.5004 C.ar    1  UNL1        0.1786
     28 N         138.4046  141.0165  157.1156 N.ar    1  UNL1       -0.3070
     29 C         138.8260  141.6503  158.4082 C.3     1  UNL1        0.1341
     30 C         143.2989  140.1882  153.0870 C.2     1  UNL1        0.2401
     31 O         143.7060  139.9822  152.4333 O.2     1  UNL1       -0.2734
     32 H         140.2790  138.8429  153.3948 H       1  UNL1        0.1240
     33 N         144.1017  144.7128  163.2614 N.1     1  UNL1       -0.1907
     34 C         143.0967  144.1212  162.3180 C.1     1  UNL1        0.1035
@<TRIPOS>BOND
     1    33    34    3
     2    34     1    1
     3     1     2   ar
     4     2     3   ar
     5     3     4   ar
     6     4     5   ar
     7     5     6   ar
     8     6     7    1
     9     7     8    1
    10     8     9   ar
    11     9    10   ar
    12    10    11   ar
    13    11    12   ar
    14    12    13   ar
    15    12    14    1
    16    14    15    1
    17    15    16    1
    18    16    17    1
    19    14    18    1
    20    18    19    1
    21    19    20    1
    22    21    20    1
    23    21    22    1
    24    22    23    1
    25    23    24    1
    26    24    25   ar
    27    25    26   ar
    28    26    27   ar
    29    27    28   ar
    30    28    29    1
    31    21    30    1
    32    30    31    2
    33     6     1   ar
    34    13     8   ar
    35    30    18   am
    36    29     4    1
    37    17    11    1
    38    28    24   ar
    39    22    32    1
