@<TRIPOS>MOLECULE
*****
 29 32 0 0 0
SMALL
GASTEIGER

@<TRIPOS>ATOM
      1 C         141.4497  142.0742  166.2643 C.3     1  UNL1        0.0510
      2 C         140.9542  142.5099  167.6114 C.3     1  UNL1        0.0489
      3 C         141.2307  141.6668  168.8209 C.3     1  UNL1        0.1364
      4 C         140.4588  142.9455  168.9585 C.3     1  UNL1        0.0571
      5 C         139.9633  143.3812  170.3056 C.3     1  UNL1        0.0722
      6 N         140.2398  142.5381  171.5151 N.3     1  UNL1       -0.2973
      7 C         141.0118  141.2594  171.3774 C.3     1  UNL1        0.0722
      8 C         141.5072  140.8238  170.0303 C.3     1  UNL1        0.0571
      9 O         142.0027  140.3881  168.6832 O.3     1  UNL1       -0.4828
     10 C         142.4981  139.9525  167.3361 C.ar    1  UNL1        0.1345
     11 C         143.2701  138.6737  167.1984 C.ar    1  UNL1        0.0366
     12 C         143.7656  138.2381  165.8513 C.ar    1  UNL1        0.0031
     13 C         143.4891  139.0812  164.6418 C.ar    1  UNL1       -0.0001
     14 C         142.7171  140.3599  164.7795 C.ar    1  UNL1       -0.0010
     15 C         142.2216  140.7955  166.1266 C.ar    1  UNL1        0.0156
     16 H         139.3347  142.2938  171.9169 H       1  UNL1        0.1233
     17 C         140.6202  144.6035  162.6359 C.ar    1  UNL1        0.0536
     18 C         141.9428  144.7069  163.3358 C.ar    1  UNL1        0.0042
     19 C         142.2193  143.8638  164.5452 C.ar    1  UNL1       -0.0038
     20 C         141.1732  142.9173  165.0548 C.ar    1  UNL1       -0.0182
     21 C         139.8505  142.8138  164.3549 C.ar    1  UNL1       -0.0038
     22 C         139.5740  143.6569  163.1454 C.ar    1  UNL1        0.0042
     23 N         140.7476  144.9614  160.0658 N.am    1  UNL1       -0.2761
     24 C         140.3437  145.4465  161.4264 C.2     1  UNL1        0.2490
     25 O         139.6632  146.7748  161.5777 O.2     1  UNL1       -0.2699
     26 C         141.4499  145.8296  157.7199 C.3     1  UNL1        0.0233
     27 C         140.4711  145.8045  158.8563 C.3     1  UNL1        0.0938
     28 C         141.4281  143.6332  159.9145 C.3     1  UNL1        0.0938
     29 C         140.6216  142.4094  159.5950 C.3     1  UNL1        0.0233
@<TRIPOS>BOND
     1    26    27    1
     2    27    23    1
     3    23    28    1
     4    28    29    1
     5    23    24   am
     6    24    25    2
     7    24    17    1
     8    17    18   ar
     9    18    19   ar
    10    19    20   ar
    11     1    20    1
    12     1     2    1
    13     2     3    1
    14     3     4    1
    15     4     5    1
    16     5     6    1
    17     6     7    1
    18     7     8    1
    19     3     9    1
    20     9    10    1
    21    10    11   ar
    22    11    12   ar
    23    12    13   ar
    24    13    14   ar
    25    14    15   ar
    26    20    21   ar
    27    21    22   ar
    28    22    17   ar
    29    15     1    1
    30     8     3    1
    31    15    10   ar
    32     6    16    1
@<TRIPOS>MOLECULE
*****
 29 32 0 0 0
SMALL
GASTEIGER

@<TRIPOS>ATOM
      1 C         139.8135  141.9537  165.7938 C.3     1  UNL1        0.0510
      2 C         140.1912  142.4622  167.1536 C.3     1  UNL1        0.0489
      3 C         140.1649  141.5372  168.3341 C.3     1  UNL1        0.1364
      4 C         140.5689  142.9706  168.5133 C.3     1  UNL1        0.0571
      5 C         140.9465  143.4791  169.8730 C.3     1  UNL1        0.0722
      6 N         140.9202  142.5541  171.0535 N.3     1  UNL1       -0.2973
      7 C         140.5162  141.1207  170.8744 C.3     1  UNL1        0.0722
      8 C         140.1385  140.6123  169.5147 C.3     1  UNL1        0.0571
      9 O         139.7608  140.1038  168.1550 O.3     1  UNL1       -0.4828
     10 C         139.3832  139.5953  166.7953 C.ar    1  UNL1        0.1345
     11 C         138.9792  138.1619  166.6161 C.ar    1  UNL1        0.0366
     12 C         138.6015  137.6534  165.2564 C.ar    1  UNL1        0.0031
     13 C         138.6278  138.5784  164.0758 C.ar    1  UNL1       -0.0001
     14 C         139.0318  140.0118  164.2549 C.ar    1  UNL1       -0.0010
     15 C         139.4095  140.5203  165.6147 C.ar    1  UNL1        0.0156
     16 H         140.2744  142.9596  171.7309 H       1  UNL1        0.1233
     17 C         139.8925  144.7286  162.2521 C.ar    1  UNL1        0.0536
     18 C         141.1747  144.1782  162.8024 C.ar    1  UNL1        0.0042
     19 C         141.1484  143.2532  163.9830 C.ar    1  UNL1       -0.0038
     20 C         139.8398  142.8787  164.6132 C.ar    1  UNL1       -0.0182
     21 C         138.5575  143.4290  164.0629 C.ar    1  UNL1       -0.0038
     22 C         138.5838  144.3540  162.8824 C.ar    1  UNL1        0.0042
     23 N         140.2402  145.1193  159.7072 N.am    1  UNL1       -0.2761
     24 C         139.9188  145.6535  161.0715 C.2     1  UNL1        0.2490
     25 O         139.6237  147.1127  161.2553 O.2     1  UNL1       -0.2699
     26 C         141.3252  145.8887  157.4754 C.3     1  UNL1        0.0233
     27 C         140.2665  146.0443  158.5267 C.3     1  UNL1        0.0938
     28 C         140.5353  143.6601  159.5235 C.3     1  UNL1        0.0938
     29 C         139.4155  142.6944  159.2716 C.3     1  UNL1        0.0233
@<TRIPOS>BOND
     1    26    27    1
     2    27    23    1
     3    23    28    1
     4    28    29    1
     5    23    24   am
     6    24    25    2
     7    24    17    1
     8    17    18   ar
     9    18    19   ar
    10    19    20   ar
    11     1    20    1
    12     1     2    1
    13     2     3    1
    14     3     4    1
    15     4     5    1
    16     5     6    1
    17     6     7    1
    18     7     8    1
    19     3     9    1
    20     9    10    1
    21    10    11   ar
    22    11    12   ar
    23    12    13   ar
    24    13    14   ar
    25    14    15   ar
    26    20    21   ar
    27    21    22   ar
    28    22    17   ar
    29    15     1    1
    30     8     3    1
    31    15    10   ar
    32     6    16    1
@<TRIPOS>MOLECULE
*****
 29 32 0 0 0
SMALL
GASTEIGER

@<TRIPOS>ATOM
      1 C         141.5092  140.9462  166.3119 C.3     1  UNL1        0.0510
      2 C         142.1358  141.5710  167.5232 C.3     1  UNL1        0.0489
      3 C         141.4975  141.4008  168.8699 C.3     1  UNL1        0.1364
      4 C         142.7624  142.1957  168.7344 C.3     1  UNL1        0.0571
      5 C         143.3889  142.8203  169.9456 C.3     1  UNL1        0.0722
      6 N         142.7506  142.6502  171.2924 N.3     1  UNL1       -0.2973
      7 C         141.4858  141.8554  171.4278 C.3     1  UNL1        0.0722
      8 C         140.8592  141.2307  170.2166 C.3     1  UNL1        0.0571
      9 O         140.2326  140.6060  169.0053 O.3     1  UNL1       -0.4828
     10 C         139.6061  139.9813  167.7941 C.ar    1  UNL1        0.1345
     11 C         138.3412  139.1864  167.9295 C.ar    1  UNL1        0.0366
     12 C         137.7146  138.5617  166.7183 C.ar    1  UNL1        0.0031
     13 C         138.3529  138.7318  165.3716 C.ar    1  UNL1       -0.0001
     14 C         139.6177  139.5267  165.2361 C.ar    1  UNL1       -0.0010
     15 C         140.2443  140.1514  166.4474 C.ar    1  UNL1        0.0156
     16 H         142.5490  143.5866  171.6430 H       1  UNL1        0.1233
     17 C         143.4240  141.4566  162.2717 C.ar    1  UNL1        0.0536
     18 C         142.3021  142.3603  162.6895 C.ar    1  UNL1        0.0042
     19 C         141.6638  142.1902  164.0363 C.ar    1  UNL1       -0.0038
     20 C         142.1474  141.1164  164.9652 C.ar    1  UNL1       -0.0182
     21 C         143.2694  140.2126  164.5474 C.ar    1  UNL1       -0.0038
     22 C         143.9077  140.3827  163.2006 C.ar    1  UNL1        0.0042
     23 N         143.6018  140.7932  159.7661 N.am    1  UNL1       -0.2761
     24 C         144.0623  141.6268  160.9250 C.2     1  UNL1        0.2490
     25 O         145.1611  142.6305  160.7372 O.2     1  UNL1       -0.2699
     26 C         143.8363  142.1074  157.5372 C.3     1  UNL1        0.0233
     27 C         144.2401  140.9634  158.4194 C.3     1  UNL1        0.0938
     28 C         142.5030  139.7895  159.9539 C.3     1  UNL1        0.0938
     29 C         142.8372  138.3437  160.1731 C.3     1  UNL1        0.0233
@<TRIPOS>BOND
     1    26    27    1
     2    27    23    1
     3    23    28    1
     4    28    29    1
     5    23    24   am
     6    24    25    2
     7    24    17    1
     8    17    18   ar
     9    18    19   ar
    10    19    20   ar
    11     1    20    1
    12     1     2    1
    13     2     3    1
    14     3     4    1
    15     4     5    1
    16     5     6    1
    17     6     7    1
    18     7     8    1
    19     3     9    1
    20     9    10    1
    21    10    11   ar
    22    11    12   ar
    23    12    13   ar
    24    13    14   ar
    25    14    15   ar
    26    20    21   ar
    27    21    22   ar
    28    22    17   ar
    29    15     1    1
    30     8     3    1
    31    15    10   ar
    32     6    16    1
@<TRIPOS>MOLECULE
*****
 29 32 0 0 0
SMALL
GASTEIGER

@<TRIPOS>ATOM
      1 C         141.3164  140.2673  166.3265 C.3     1  UNL1        0.0510
      2 C         142.1548  141.0416  167.3000 C.3     1  UNL1        0.0489
      3 C         141.6797  141.2372  168.7093 C.3     1  UNL1        0.1364
      4 C         142.9932  141.8158  168.2734 C.3     1  UNL1        0.0571
      5 C         143.8315  142.5901  169.2469 C.3     1  UNL1        0.0722
      6 N         143.3565  142.7857  170.6561 N.3     1  UNL1       -0.2973
      7 C         142.0430  142.2071  171.0920 C.3     1  UNL1        0.0722
      8 C         141.2046  141.4328  170.1185 C.3     1  UNL1        0.0571
      9 O         140.3662  140.6585  169.1451 O.3     1  UNL1       -0.4828
     10 C         139.5278  139.8843  168.1716 C.ar    1  UNL1        0.1345
     11 C         138.2143  139.3056  168.6074 C.ar    1  UNL1        0.0366
     12 C         137.3759  138.5314  167.6340 C.ar    1  UNL1        0.0031
     13 C         137.8510  138.3357  166.2247 C.ar    1  UNL1       -0.0001
     14 C         139.1645  138.9143  165.7889 C.ar    1  UNL1       -0.0010
     15 C         140.0029  139.6886  166.7624 C.ar    1  UNL1        0.0156
     16 H         143.3006  143.7923  170.8110 H       1  UNL1        0.1233
     17 C         142.7416  139.6804  162.0987 C.ar    1  UNL1        0.0536
     18 C         143.0283  138.6379  163.1384 C.ar    1  UNL1        0.0042
     19 C         142.5532  138.8335  164.5477 C.ar    1  UNL1       -0.0038
     20 C         141.7914  140.0716  164.9173 C.ar    1  UNL1       -0.0182
     21 C         141.5047  141.1143  163.8776 C.ar    1  UNL1       -0.0038
     22 C         141.9798  140.9186  162.4683 C.ar    1  UNL1        0.0042
     23 N         142.3098  138.8576  159.6725 N.am    1  UNL1       -0.2761
     24 C         143.2167  139.4848  160.6895 C.2     1  UNL1        0.2490
     25 O         144.5987  139.9163  160.2972 O.2     1  UNL1       -0.2699
     26 C         142.6240  137.3282  157.5959 C.3     1  UNL1        0.0233
     27 C         142.7849  138.6620  158.2633 C.3     1  UNL1        0.0938
     28 C         140.9278  138.4260  160.0648 C.3     1  UNL1        0.0938
     29 C         139.7540  139.3131  159.7732 C.3     1  UNL1        0.0233
@<TRIPOS>BOND
     1    26    27    1
     2    27    23    1
     3    23    28    1
     4    28    29    1
     5    23    24   am
     6    24    25    2
     7    24    17    1
     8    17    18   ar
     9    18    19   ar
    10    19    20   ar
    11     1    20    1
    12     1     2    1
    13     2     3    1
    14     3     4    1
    15     4     5    1
    16     5     6    1
    17     6     7    1
    18     7     8    1
    19     3     9    1
    20     9    10    1
    21    10    11   ar
    22    11    12   ar
    23    12    13   ar
    24    13    14   ar
    25    14    15   ar
    26    20    21   ar
    27    21    22   ar
    28    22    17   ar
    29    15     1    1
    30     8     3    1
    31    15    10   ar
    32     6    16    1
@<TRIPOS>MOLECULE
*****
 29 32 0 0 0
SMALL
GASTEIGER

@<TRIPOS>ATOM
      1 C         141.9846  142.2704  162.5508 C.3     1  UNL1        0.0510
      2 C         142.6305  141.3901  161.5223 C.3     1  UNL1        0.0489
      3 C         142.5837  141.7717  160.0724 C.3     1  UNL1        0.1364
      4 C         143.2764  140.5098  160.4938 C.3     1  UNL1        0.0571
      5 C         143.9223  139.6295  159.4653 C.3     1  UNL1        0.0722
      6 N         143.8755  140.0111  158.0154 N.3     1  UNL1       -0.2973
      7 C         143.1827  141.2730  157.5940 C.3     1  UNL1        0.0722
      8 C         142.5368  142.1533  158.6225 C.3     1  UNL1        0.0571
      9 O         141.8908  143.0337  159.6511 O.3     1  UNL1       -0.4828
     10 C         141.2449  143.9139  160.6795 C.ar    1  UNL1        0.1345
     11 C         140.5521  145.1759  160.2582 C.ar    1  UNL1        0.0366
     12 C         139.9062  146.0562  161.2867 C.ar    1  UNL1        0.0031
     13 C         139.9531  145.6746  162.7366 C.ar    1  UNL1       -0.0001
     14 C         140.6458  144.4127  163.1580 C.ar    1  UNL1       -0.0010
     15 C         141.2918  143.5323  162.1294 C.ar    1  UNL1        0.0156
     16 H         143.4158  139.2446  157.5239 H       1  UNL1        0.1233
     17 C         142.1252  141.1256  166.9005 C.ar    1  UNL1        0.0536
     18 C         143.1453  142.0721  166.3407 C.ar    1  UNL1        0.0042
     19 C         143.0984  142.4537  164.8908 C.ar    1  UNL1       -0.0038
     20 C         142.0314  141.8888  164.0007 C.ar    1  UNL1       -0.0182
     21 C         141.0112  140.9423  164.5605 C.ar    1  UNL1       -0.0038
     22 C         141.0581  140.5606  166.0104 C.ar    1  UNL1        0.0042
     23 N         141.4069  141.5449  169.3618 N.am    1  UNL1       -0.2761
     24 C         142.1720  140.7440  168.3504 C.2     1  UNL1        0.2490
     25 O         142.9841  139.5614  168.7888 O.2     1  UNL1       -0.2699
     26 C         140.4676  140.1745  171.3593 C.3     1  UNL1        0.0233
     27 C         141.4538  141.1633  170.8117 C.3     1  UNL1        0.0938
     28 C         140.5948  142.7275  168.9234 C.3     1  UNL1        0.0938
     29 C         140.4723  143.9259  169.8171 C.3     1  UNL1        0.0233
@<TRIPOS>BOND
     1    26    27    1
     2    27    23    1
     3    23    28    1
     4    28    29    1
     5    23    24   am
     6    24    25    2
     7    24    17    1
     8    17    18   ar
     9    18    19   ar
    10    19    20   ar
    11     1    20    1
    12     1     2    1
    13     2     3    1
    14     3     4    1
    15     4     5    1
    16     5     6    1
    17     6     7    1
    18     7     8    1
    19     3     9    1
    20     9    10    1
    21    10    11   ar
    22    11    12   ar
    23    12    13   ar
    24    13    14   ar
    25    14    15   ar
    26    20    21   ar
    27    21    22   ar
    28    22    17   ar
    29    15     1    1
    30     8     3    1
    31    15    10   ar
    32     6    16    1
@<TRIPOS>MOLECULE
*****
 29 32 0 0 0
SMALL
GASTEIGER

@<TRIPOS>ATOM
      1 C         141.0651  140.2761  161.6035 C.3     1  UNL1        0.0510
      2 C         142.4126  140.9335  161.6529 C.3     1  UNL1        0.0489
      3 C         143.3460  140.6460  162.7914 C.3     1  UNL1        0.1364
      4 C         143.7600  141.5907  161.7023 C.3     1  UNL1        0.0571
      5 C         145.1074  142.2480  161.7518 C.3     1  UNL1        0.0722
      6 N         146.0408  141.9606  162.8902 N.3     1  UNL1       -0.2973
      7 C         145.6268  141.0158  163.9792 C.3     1  UNL1        0.0722
      8 C         144.2795  140.3585  163.9298 C.3     1  UNL1        0.0571
      9 O         142.9320  139.7012  163.8805 O.3     1  UNL1       -0.4828
     10 C         141.5846  139.0439  163.8310 C.ar    1  UNL1        0.1345
     11 C         141.1706  138.0991  164.9201 C.ar    1  UNL1        0.0366
     12 C         139.8232  137.4418  164.8707 C.ar    1  UNL1        0.0031
     13 C         138.8898  137.7293  163.7322 C.ar    1  UNL1       -0.0001
     14 C         139.3037  138.6740  162.6432 C.ar    1  UNL1       -0.0010
     15 C         140.6512  139.3314  162.6926 C.ar    1  UNL1        0.0156
     16 H         146.2439  142.8545  163.3374 H       1  UNL1        0.1233
     17 C         138.2649  141.1385  158.1882 C.ar    1  UNL1        0.0536
     18 C         138.2519  142.0119  159.4076 C.ar    1  UNL1        0.0042
     19 C         139.1853  141.7244  160.5460 C.ar    1  UNL1       -0.0038
     20 C         140.1317  140.5636  160.4651 C.ar    1  UNL1       -0.0182
     21 C         140.1448  139.6901  159.2457 C.ar    1  UNL1       -0.0038
     22 C         139.2113  139.9775  158.1072 C.ar    1  UNL1        0.0042
     23 N         137.6484  142.5248  156.0792 N.am    1  UNL1       -0.2761
     24 C         137.3314  141.4260  157.0497 C.2     1  UNL1        0.2490
     25 O         136.0810  140.6145  156.8819 O.2     1  UNL1       -0.2699
     26 C         136.8878  144.0597  154.1258 C.3     1  UNL1        0.0233
     27 C         136.7149  142.8122  154.9407 C.3     1  UNL1        0.0938
     28 C         138.8988  143.3362  156.2470 C.3     1  UNL1        0.0938
     29 C         140.1718  142.8978  155.5857 C.3     1  UNL1        0.0233
@<TRIPOS>BOND
     1    26    27    1
     2    27    23    1
     3    23    28    1
     4    28    29    1
     5    23    24   am
     6    24    25    2
     7    24    17    1
     8    17    18   ar
     9    18    19   ar
    10    19    20   ar
    11     1    20    1
    12     1     2    1
    13     2     3    1
    14     3     4    1
    15     4     5    1
    16     5     6    1
    17     6     7    1
    18     7     8    1
    19     3     9    1
    20     9    10    1
    21    10    11   ar
    22    11    12   ar
    23    12    13   ar
    24    13    14   ar
    25    14    15   ar
    26    20    21   ar
    27    21    22   ar
    28    22    17   ar
    29    15     1    1
    30     8     3    1
    31    15    10   ar
    32     6    16    1
@<TRIPOS>MOLECULE
*****
 29 32 0 0 0
SMALL
GASTEIGER

@<TRIPOS>ATOM
      1 C         140.2925  140.3654  162.4472 C.3     1  UNL1        0.0510
      2 C         140.3121  141.8647  162.4873 C.3     1  UNL1        0.0489
      3 C         139.7039  142.5919  163.6498 C.3     1  UNL1        0.1364
      4 C         140.3318  143.3640  162.5275 C.3     1  UNL1        0.0571
      5 C         140.3514  144.8633  162.5676 C.3     1  UNL1        0.0722
      6 N         139.7432  145.5905  163.7301 N.3     1  UNL1       -0.2973
      7 C         139.1154  144.8184  164.8524 C.3     1  UNL1        0.0722
      8 C         139.0957  143.3191  164.8122 C.3     1  UNL1        0.0571
      9 O         139.0761  141.8197  164.7721 O.3     1  UNL1       -0.4828
     10 C         139.0564  140.3204  164.7320 C.ar    1  UNL1        0.1345
     11 C         138.4285  139.5482  165.8543 C.ar    1  UNL1        0.0366
     12 C         138.4089  138.0489  165.8142 C.ar    1  UNL1        0.0031
     13 C         139.0171  137.3217  164.6517 C.ar    1  UNL1       -0.0001
     14 C         139.6450  138.0939  163.5294 C.ar    1  UNL1       -0.0010
     15 C         139.6646  139.5932  163.5695 C.ar    1  UNL1        0.0156
     16 H         139.0185  146.1994  163.3500 H       1  UNL1        0.1233
     17 C         142.1171  138.1838  158.9599 C.ar    1  UNL1        0.0536
     18 C         142.9617  138.5386  160.1477 C.ar    1  UNL1        0.0042
     19 C         142.3535  139.2658  161.3101 C.ar    1  UNL1       -0.0038
     20 C         140.9007  139.6382  161.2848 C.ar    1  UNL1       -0.0182
     21 C         140.0560  139.2834  160.0970 C.ar    1  UNL1       -0.0038
     22 C         140.6643  138.5562  158.9346 C.ar    1  UNL1        0.0042
     23 N         143.2350  138.2260  156.6150 N.am    1  UNL1       -0.2761
     24 C         142.7254  137.4566  157.7975 C.2     1  UNL1        0.2490
     25 O         142.8239  135.9599  157.8175 O.2     1  UNL1       -0.2699
     26 C         142.9668  136.7379  154.5023 C.3     1  UNL1        0.0233
     27 C         143.8432  137.4988  155.4526 C.3     1  UNL1        0.0938
     28 C         143.1365  139.7227  156.5950 C.3     1  UNL1        0.0938
     29 C         144.2876  140.5566  157.0739 C.3     1  UNL1        0.0233
@<TRIPOS>BOND
     1    26    27    1
     2    27    23    1
     3    23    28    1
     4    28    29    1
     5    23    24   am
     6    24    25    2
     7    24    17    1
     8    17    18   ar
     9    18    19   ar
    10    19    20   ar
    11     1    20    1
    12     1     2    1
    13     2     3    1
    14     3     4    1
    15     4     5    1
    16     5     6    1
    17     6     7    1
    18     7     8    1
    19     3     9    1
    20     9    10    1
    21    10    11   ar
    22    11    12   ar
    23    12    13   ar
    24    13    14   ar
    25    14    15   ar
    26    20    21   ar
    27    21    22   ar
    28    22    17   ar
    29    15     1    1
    30     8     3    1
    31    15    10   ar
    32     6    16    1
@<TRIPOS>MOLECULE
*****
 29 32 0 0 0
SMALL
GASTEIGER

@<TRIPOS>ATOM
      1 C         140.4331  142.3790  161.4931 C.3     1  UNL1        0.0510
      2 C         141.9075  142.1057  161.5320 C.3     1  UNL1        0.0489
      3 C         142.7200  142.5410  162.7154 C.3     1  UNL1        0.1364
      4 C         143.3819  141.8325  161.5709 C.3     1  UNL1        0.0571
      5 C         144.8562  141.5592  161.6099 C.3     1  UNL1        0.0722
      6 N         145.6687  141.9945  162.7933 N.3     1  UNL1       -0.2973
      7 C         145.0068  142.7030  163.9378 C.3     1  UNL1        0.0722
      8 C         143.5324  142.9762  163.8988 C.3     1  UNL1        0.0571
      9 O         142.0580  143.2495  163.8599 O.3     1  UNL1       -0.4828
     10 C         140.5836  143.5227  163.8209 C.ar    1  UNL1        0.1345
     11 C         139.9216  144.2313  164.9655 C.ar    1  UNL1        0.0366
     12 C         138.4473  144.5045  164.9265 C.ar    1  UNL1        0.0031
     13 C         137.6348  144.0693  163.7431 C.ar    1  UNL1       -0.0001
     14 C         138.2967  143.3608  162.5986 C.ar    1  UNL1       -0.0010
     15 C         139.7712  143.0875  162.6375 C.ar    1  UNL1        0.0156
     16 H         146.3930  142.6194  162.4394 H       1  UNL1        0.1233
     17 C         137.9958  141.0732  157.9428 C.ar    1  UNL1        0.0536
     18 C         138.3603  140.0818  159.0078 C.ar    1  UNL1        0.0042
     19 C         139.1728  140.5171  160.1912 C.ar    1  UNL1       -0.0038
     20 C         139.6206  141.9437  160.3096 C.ar    1  UNL1       -0.0182
     21 C         139.2561  142.9352  159.2446 C.ar    1  UNL1       -0.0038
     22 C         138.4436  142.4999  158.0612 C.ar    1  UNL1        0.0042
     23 N         137.8687  140.2104  155.4955 N.am    1  UNL1       -0.2761
     24 C         137.1833  140.6379  156.7594 C.2     1  UNL1        0.2490
     25 O         135.6854  140.6302  156.8399 O.2     1  UNL1       -0.2699
     26 C         136.6788  138.3323  154.1512 C.3     1  UNL1        0.0233
     27 C         137.0562  139.7752  154.3121 C.3     1  UNL1        0.0938
     28 C         139.3665  140.2182  155.4149 C.3     1  UNL1        0.0938
     29 C         140.1402  138.9687  155.7151 C.3     1  UNL1        0.0233
@<TRIPOS>BOND
     1    26    27    1
     2    27    23    1
     3    23    28    1
     4    28    29    1
     5    23    24   am
     6    24    25    2
     7    24    17    1
     8    17    18   ar
     9    18    19   ar
    10    19    20   ar
    11     1    20    1
    12     1     2    1
    13     2     3    1
    14     3     4    1
    15     4     5    1
    16     5     6    1
    17     6     7    1
    18     7     8    1
    19     3     9    1
    20     9    10    1
    21    10    11   ar
    22    11    12   ar
    23    12    13   ar
    24    13    14   ar
    25    14    15   ar
    26    20    21   ar
    27    21    22   ar
    28    22    17   ar
    29    15     1    1
    30     8     3    1
    31    15    10   ar
    32     6    16    1
@<TRIPOS>MOLECULE
*****
 29 32 0 0 0
SMALL
GASTEIGER

@<TRIPOS>ATOM
      1 C         141.6348  140.1511  163.6929 C.3     1  UNL1        0.0510
      2 C         140.5202  139.5748  164.5150 C.3     1  UNL1        0.0489
      3 C         140.3500  139.9927  165.9455 C.3     1  UNL1        0.1364
      4 C         139.4058  138.9986  165.3371 C.3     1  UNL1        0.0571
      5 C         138.2913  138.4224  166.1593 C.3     1  UNL1        0.0722
      6 N         138.1211  138.8404  167.5898 N.3     1  UNL1       -0.2973
      7 C         139.0653  139.8345  168.1981 C.3     1  UNL1        0.0722
      8 C         140.1797  140.4107  167.3760 C.3     1  UNL1        0.0571
      9 O         141.2943  140.9869  166.5539 O.3     1  UNL1       -0.4828
     10 C         142.4087  141.5631  165.7317 C.ar    1  UNL1        0.1345
     11 C         143.3530  142.5573  166.3401 C.ar    1  UNL1        0.0366
     12 C         144.4674  143.1335  165.5180 C.ar    1  UNL1        0.0031
     13 C         144.6377  142.7155  164.0875 C.ar    1  UNL1       -0.0001
     14 C         143.6935  141.7214  163.4791 C.ar    1  UNL1       -0.0010
     15 C         142.5790  141.1452  164.3012 C.ar    1  UNL1        0.0156
     16 H         138.1827  137.9926  168.1535 H       1  UNL1        0.1233
     17 C         142.1455  138.8973  159.4013 C.ar    1  UNL1        0.0536
     18 C         141.2196  140.0252  159.7480 C.ar    1  UNL1        0.0042
     19 C         141.0493  140.4432  161.1785 C.ar    1  UNL1       -0.0038
     20 C         141.8050  139.7331  162.2624 C.ar    1  UNL1       -0.0182
     21 C         142.7310  138.6051  161.9157 C.ar    1  UNL1       -0.0038
     22 C         142.9013  138.1871  160.4852 C.ar    1  UNL1        0.0042
     23 N         143.2967  139.1967  157.0916 N.am    1  UNL1       -0.2761
     24 C         142.3158  138.4793  157.9708 C.2     1  UNL1        0.2490
     25 O         141.5051  137.3439  157.4196 O.2     1  UNL1       -0.2699
     26 C         144.3735  137.6344  155.3169 C.3     1  UNL1        0.0233
     27 C         143.4669  138.7788  155.6610 C.3     1  UNL1        0.0938
     28 C         144.1073  140.3321  157.6428 C.3     1  UNL1        0.0938
     29 C         143.6502  141.7466  157.4423 C.3     1  UNL1        0.0233
@<TRIPOS>BOND
     1    26    27    1
     2    27    23    1
     3    23    28    1
     4    28    29    1
     5    23    24   am
     6    24    25    2
     7    24    17    1
     8    17    18   ar
     9    18    19   ar
    10    19    20   ar
    11     1    20    1
    12     1     2    1
    13     2     3    1
    14     3     4    1
    15     4     5    1
    16     5     6    1
    17     6     7    1
    18     7     8    1
    19     3     9    1
    20     9    10    1
    21    10    11   ar
    22    11    12   ar
    23    12    13   ar
    24    13    14   ar
    25    14    15   ar
    26    20    21   ar
    27    21    22   ar
    28    22    17   ar
    29    15     1    1
    30     8     3    1
    31    15    10   ar
    32     6    16    1
