@<TRIPOS>MOLECULE
*****
 34 37 0 0 0
SMALL
GASTEIGER

@<TRIPOS>ATOM
      1 N         139.3438  139.8245  163.4698 N.pl3   1  UNL1       -0.3046
      2 C         140.1398  140.8377  162.7019 C.3     1  UNL1        0.1081
      3 C         140.1525  140.8015  161.2023 C.3     1  UNL1        0.0938
      4 N         139.3692  139.7522  160.4707 N.3     1  UNL1       -0.2698
      5 C         138.5731  138.7389  161.2387 C.3     1  UNL1        0.0938
      6 C         138.5604  138.7751  162.7382 C.3     1  UNL1        0.1081
      7 C         140.2729  140.7889  167.2056 C.ar    1  UNL1        0.0515
      8 C         139.3057  139.9330  167.9683 C.ar    1  UNL1        0.0148
      9 C         138.3511  139.0408  167.2315 C.ar    1  UNL1        0.0025
     10 C         138.3638  139.0047  165.7320 C.ar    1  UNL1        0.0146
     11 C         139.3310  139.8606  164.9693 C.ar    1  UNL1        0.0492
     12 C         140.2856  140.7528  165.7062 C.ar    1  UNL1        0.0292
     13 C         143.4697  142.0172  169.2110 C.3     1  UNL1        0.0949
     14 C         142.5152  141.1251  168.4742 C.2     1  UNL1        0.2266
     15 O         142.8483  139.6770  168.2691 O.2     1  UNL1       -0.2748
     16 N         141.2275  141.6811  167.9425 N.am    1  UNL1       -0.2839
     17 H         141.0089  142.6315  168.0771 H       1  UNL1        0.1549
     18 C         139.3819  139.7160  158.9713 C.3     1  UNL1        0.0722
     19 C         140.2483  138.7248  158.2523 C.3     1  UNL1        0.0189
     20 C         141.6541  138.4824  158.7158 C.3     1  UNL1        0.0206
     21 C         142.5205  137.4912  157.9968 C.3     1  UNL1        0.0955
     22 N         141.9810  136.7424  156.8144 N.3     1  UNL1       -0.1594
     23 C         140.5751  136.9847  156.3509 C.3     1  UNL1        0.0955
     24 C         139.7088  137.9759  157.0698 C.3     1  UNL1        0.0206
     25 S         142.8473  135.7512  156.0954 S.O2    1  UNL1        0.0438
     26 O         144.0455  136.6191  156.3427 O.2     1  UNL1       -0.1573
     27 O         141.6492  134.8833  155.8482 O.2     1  UNL1       -0.1573
     28 C         143.7138  134.7600  155.3764 C.3     1  UNL1        0.1690
     29 C         143.9175  133.3883  155.9482 C.3     1  UNL1        0.0253
     30 C         143.5588  132.1774  155.1388 C.3     1  UNL1        0.0018
     31 C         143.7625  130.8057  155.7105 C.3     1  UNL1        0.0001
     32 C         144.3249  130.6449  157.0918 C.3     1  UNL1        0.0000
     33 C         144.6836  131.8557  157.9012 C.3     1  UNL1        0.0001
     34 C         144.4799  133.2274  157.3294 C.3     1  UNL1        0.0018
@<TRIPOS>BOND
     1    13    14    1
     2    14    15    2
     3    14    16   am
     4    16     7    1
     5     7     8   ar
     6     8     9   ar
     7     9    10   ar
     8    10    11   ar
     9    11     1    1
    10     1     2    1
    11     2     3    1
    12     3     4    1
    13     4    18    1
    14    18    19    1
    15    19    20    1
    16    20    21    1
    17    21    22    1
    18    22    25    1
    19    25    26    2
    20    25    27    2
    21    25    28    1
    22    28    29    1
    23    29    30    1
    24    30    31    1
    25    31    32    1
    26    32    33    1
    27    33    34    1
    28    22    23    1
    29    23    24    1
    30     4     5    1
    31     5     6    1
    32    11    12   ar
    33    12     7   ar
    34     6     1    1
    35    24    19    1
    36    34    29    1
    37    16    17    1
@<TRIPOS>MOLECULE
*****
 34 37 0 0 0
SMALL
GASTEIGER

@<TRIPOS>ATOM
      1 N         143.4787  136.9297  156.1097 N.pl3   1  UNL1       -0.3046
      2 C         142.8829  137.6533  157.2808 C.3     1  UNL1        0.1081
      3 C         143.2877  139.0677  157.5735 C.3     1  UNL1        0.0938
      4 N         144.2884  139.7585  156.6952 N.3     1  UNL1       -0.2698
      5 C         144.8842  139.0349  155.5241 C.3     1  UNL1        0.0938
      6 C         144.4794  137.6205  155.2314 C.3     1  UNL1        0.1081
      7 C         142.9289  133.0223  156.5337 C.ar    1  UNL1        0.0515
      8 C         142.2644  132.6866  155.2315 C.ar    1  UNL1        0.0148
      9 C         142.0047  133.7653  154.2221 C.ar    1  UNL1        0.0025
     10 C         142.4094  135.1796  154.5148 C.ar    1  UNL1        0.0146
     11 C         143.0739  135.5153  155.8169 C.ar    1  UNL1        0.0492
     12 C         143.3337  134.4367  156.8264 C.ar    1  UNL1        0.0292
     13 C         144.5738  129.8959  158.3420 C.3     1  UNL1        0.0949
     14 C         144.3140  130.9746  157.3326 C.2     1  UNL1        0.2266
     15 O         145.1797  131.0842  156.1125 O.2     1  UNL1       -0.2748
     16 N         143.1886  131.9436  157.5432 N.am    1  UNL1       -0.2839
     17 H         142.6205  131.8717  158.3439 H       1  UNL1        0.1549
     18 C         144.6932  141.1728  156.9879 C.3     1  UNL1        0.0722
     19 C         143.8374  142.0300  157.8727 C.3     1  UNL1        0.0189
     20 C         142.6459  142.7410  157.3028 C.3     1  UNL1        0.0206
     21 C         141.7901  143.5983  158.1877 C.3     1  UNL1        0.0955
     22 N         142.1258  143.7444  159.6423 N.3     1  UNL1       -0.1594
     23 C         143.3174  143.0334  160.2121 C.3     1  UNL1        0.0955
     24 C         144.1731  142.1762  159.3273 C.3     1  UNL1        0.0206
     25 S         141.2701  144.6016  160.5270 S.O2    1  UNL1        0.0438
     26 O         142.3683  144.6445  161.5477 O.2     1  UNL1       -0.1573
     27 O         140.1718  144.5588  159.5063 O.2     1  UNL1       -0.1573
     28 C         140.4143  145.4589  161.4118 C.3     1  UNL1        0.1690
     29 C         139.6110  144.8327  162.5130 C.3     1  UNL1        0.0253
     30 C         139.9482  145.1227  163.9456 C.3     1  UNL1        0.0018
     31 C         139.1449  144.4965  165.0467 C.3     1  UNL1        0.0001
     32 C         138.0043  143.5804  164.7154 C.3     1  UNL1        0.0000
     33 C         137.6671  143.2904  163.2829 C.3     1  UNL1        0.0001
     34 C         138.4704  143.9165  162.1816 C.3     1  UNL1        0.0018
@<TRIPOS>BOND
     1    13    14    1
     2    14    15    2
     3    14    16   am
     4    16     7    1
     5     7     8   ar
     6     8     9   ar
     7     9    10   ar
     8    10    11   ar
     9    11     1    1
    10     1     2    1
    11     2     3    1
    12     3     4    1
    13     4    18    1
    14    18    19    1
    15    19    20    1
    16    20    21    1
    17    21    22    1
    18    22    25    1
    19    25    26    2
    20    25    27    2
    21    25    28    1
    22    28    29    1
    23    29    30    1
    24    30    31    1
    25    31    32    1
    26    32    33    1
    27    33    34    1
    28    22    23    1
    29    23    24    1
    30     4     5    1
    31     5     6    1
    32    11    12   ar
    33    12     7   ar
    34     6     1    1
    35    24    19    1
    36    34    29    1
    37    16    17    1
@<TRIPOS>MOLECULE
*****
 34 37 0 0 0
SMALL
GASTEIGER

@<TRIPOS>ATOM
      1 N         140.3111  137.7790  156.6129 N.pl3   1  UNL1       -0.3046
      2 C         140.4178  137.8497  158.1074 C.3     1  UNL1        0.1081
      3 C         139.6542  138.8950  158.8652 C.3     1  UNL1        0.0938
      4 N         138.7839  139.8696  158.1285 N.3     1  UNL1       -0.2698
      5 C         138.6773  139.7989  156.6339 C.3     1  UNL1        0.0938
      6 C         139.4409  138.7536  155.8761 C.3     1  UNL1        0.1081
      7 C         142.9937  134.9855  155.7464 C.ar    1  UNL1        0.0515
      8 C         142.6020  134.6431  154.3395 C.ar    1  UNL1        0.0148
      9 C         141.4467  135.3460  153.6904 C.ar    1  UNL1        0.0025
     10 C         140.6831  136.3912  154.4482 C.ar    1  UNL1        0.0146
     11 C         141.0748  136.7337  155.8550 C.ar    1  UNL1        0.0492
     12 C         142.2301  136.0308  156.5041 C.ar    1  UNL1        0.0292
     13 C         145.0946  132.2555  157.7170 C.3     1  UNL1        0.0949
     14 C         143.9393  132.9584  157.0679 C.2     1  UNL1        0.2266
     15 O         142.5743  132.3368  157.0912 O.2     1  UNL1       -0.2748
     16 N         144.1490  134.2827  156.3955 N.am    1  UNL1       -0.2839
     17 H         145.0448  134.6906  156.3802 H       1  UNL1        0.1549
     18 C         138.0203  140.9149  158.8862 C.3     1  UNL1        0.0722
     19 C         138.5014  141.3658  160.2335 C.3     1  UNL1        0.0189
     20 C         139.6701  142.3002  160.3385 C.3     1  UNL1        0.0206
     21 C         140.1511  142.7511  161.6859 C.3     1  UNL1        0.0955
     22 N         139.4635  142.2676  162.9282 N.3     1  UNL1       -0.1594
     23 C         138.2947  141.3332  162.8232 C.3     1  UNL1        0.0955
     24 C         137.8137  140.8823  161.4759 C.3     1  UNL1        0.0206
     25 S         139.9445  142.7185  164.2755 S.O2    1  UNL1        0.0438
     26 O         138.5405  143.0871  164.6534 O.2     1  UNL1       -0.1573
     27 O         141.3485  142.3499  163.8975 O.2     1  UNL1       -0.1573
     28 C         140.4255  143.1694  165.6228 C.3     1  UNL1        0.1690
     29 C         140.2085  142.3006  166.8261 C.3     1  UNL1        0.0253
     30 C         140.4336  142.8547  168.2018 C.3     1  UNL1        0.0018
     31 C         140.2165  141.9858  169.4051 C.3     1  UNL1        0.0001
     32 C         139.7743  140.5629  169.2328 C.3     1  UNL1        0.0000
     33 C         139.5492  140.0088  167.8572 C.3     1  UNL1        0.0001
     34 C         139.7663  140.8776  166.6538 C.3     1  UNL1        0.0018
@<TRIPOS>BOND
     1    13    14    1
     2    14    15    2
     3    14    16   am
     4    16     7    1
     5     7     8   ar
     6     8     9   ar
     7     9    10   ar
     8    10    11   ar
     9    11     1    1
    10     1     2    1
    11     2     3    1
    12     3     4    1
    13     4    18    1
    14    18    19    1
    15    19    20    1
    16    20    21    1
    17    21    22    1
    18    22    25    1
    19    25    26    2
    20    25    27    2
    21    25    28    1
    22    28    29    1
    23    29    30    1
    24    30    31    1
    25    31    32    1
    26    32    33    1
    27    33    34    1
    28    22    23    1
    29    23    24    1
    30     4     5    1
    31     5     6    1
    32    11    12   ar
    33    12     7   ar
    34     6     1    1
    35    24    19    1
    36    34    29    1
    37    16    17    1
@<TRIPOS>MOLECULE
*****
 34 37 0 0 0
SMALL
GASTEIGER

@<TRIPOS>ATOM
      1 N         140.1286  138.6140  161.2044 N.pl3   1  UNL1       -0.3046
      2 C         139.2726  138.6668  159.9738 C.3     1  UNL1        0.1081
      3 C         139.8777  138.4003  158.6273 C.3     1  UNL1        0.0938
      4 N         141.3388  138.0810  158.5116 N.3     1  UNL1       -0.2698
      5 C         142.1947  138.0283  159.7423 C.3     1  UNL1        0.0938
      6 C         141.5896  138.2948  161.0887 C.3     1  UNL1        0.1081
      7 C         138.2691  140.4695  164.1793 C.ar    1  UNL1        0.0515
      8 C         138.3134  139.4136  165.2437 C.ar    1  UNL1        0.0148
      9 C         138.9627  138.0912  164.9617 C.ar    1  UNL1        0.0025
     10 C         139.5678  137.8246  163.6153 C.ar    1  UNL1        0.0146
     11 C         139.5235  138.8805  162.5509 C.ar    1  UNL1        0.0492
     12 C         138.8742  140.2030  162.8329 C.ar    1  UNL1        0.0292
     13 C         137.8156  144.3369  164.9456 C.3     1  UNL1        0.0949
     14 C         138.4649  143.0145  164.6636 C.2     1  UNL1        0.2266
     15 O         139.9596  142.9146  164.5840 O.2     1  UNL1       -0.2748
     16 N         137.6198  141.7919  164.4612 N.am    1  UNL1       -0.2839
     17 H         136.6388  141.8575  164.5134 H       1  UNL1        0.1549
     18 C         141.9438  137.8145  157.1652 C.3     1  UNL1        0.0722
     19 C         142.1476  136.4029  156.7007 C.3     1  UNL1        0.0189
     20 C         141.2508  135.8231  155.6474 C.3     1  UNL1        0.0206
     21 C         141.4546  134.4114  155.1829 C.3     1  UNL1        0.0955
     22 N         142.5553  133.5796  155.7717 N.3     1  UNL1       -0.1594
     23 C         143.4521  134.1595  156.8249 C.3     1  UNL1        0.0955
     24 C         143.2483  135.5711  157.2894 C.3     1  UNL1        0.0206
     25 S         142.7590  132.1680  155.3072 S.O2    1  UNL1        0.0438
     26 O         142.9186  131.7227  156.7306 O.2     1  UNL1       -0.1573
     27 O         142.5995  132.6134  153.8837 O.2     1  UNL1       -0.1573
     28 C         142.9628  130.7563  154.8427 C.3     1  UNL1        0.1690
     29 C         141.9572  129.6995  155.1915 C.3     1  UNL1        0.0253
     30 C         142.3869  128.4738  155.9419 C.3     1  UNL1        0.0018
     31 C         141.3813  127.4169  156.2907 C.3     1  UNL1        0.0001
     32 C         139.9460  127.5856  155.8891 C.3     1  UNL1        0.0000
     33 C         139.5162  128.8112  155.1386 C.3     1  UNL1        0.0001
     34 C         140.5219  129.8682  154.7898 C.3     1  UNL1        0.0018
@<TRIPOS>BOND
     1    13    14    1
     2    14    15    2
     3    14    16   am
     4    16     7    1
     5     7     8   ar
     6     8     9   ar
     7     9    10   ar
     8    10    11   ar
     9    11     1    1
    10     1     2    1
    11     2     3    1
    12     3     4    1
    13     4    18    1
    14    18    19    1
    15    19    20    1
    16    20    21    1
    17    21    22    1
    18    22    25    1
    19    25    26    2
    20    25    27    2
    21    25    28    1
    22    28    29    1
    23    29    30    1
    24    30    31    1
    25    31    32    1
    26    32    33    1
    27    33    34    1
    28    22    23    1
    29    23    24    1
    30     4     5    1
    31     5     6    1
    32    11    12   ar
    33    12     7   ar
    34     6     1    1
    35    24    19    1
    36    34    29    1
    37    16    17    1
@<TRIPOS>MOLECULE
*****
 34 37 0 0 0
SMALL
GASTEIGER

@<TRIPOS>ATOM
      1 N         137.8637  142.9886  156.3380 N.pl3   1  UNL1       -0.3046
      2 C         138.2175  142.5241  157.7197 C.3     1  UNL1        0.1081
      3 C         139.2466  143.2663  158.5199 C.3     1  UNL1        0.0938
      4 N         139.9217  144.4730  157.9385 N.3     1  UNL1       -0.2698
      5 C         139.5678  144.9375  156.5568 C.3     1  UNL1        0.0938
      6 C         138.5388  144.1953  155.7566 C.3     1  UNL1        0.1081
      7 C         135.0456  140.3709  155.3602 C.ar    1  UNL1        0.0515
      8 C         134.7767  140.7622  153.9374 C.ar    1  UNL1        0.0148
      9 C         135.5367  141.8956  153.3147 C.ar    1  UNL1        0.0025
     10 C         136.5657  142.6378  154.1149 C.ar    1  UNL1        0.0146
     11 C         136.8347  142.2465  155.5378 C.ar    1  UNL1        0.0492
     12 C         136.0746  141.1131  156.1604 C.ar    1  UNL1        0.0292
     13 C         132.1533  138.3385  157.1639 C.3     1  UNL1        0.0949
     14 C         132.9133  139.4719  156.5413 C.2     1  UNL1        0.2266
     15 O         132.3010  140.8398  156.4770 O.2     1  UNL1       -0.2748
     16 N         134.2856  139.2375  155.9829 N.am    1  UNL1       -0.2839
     17 H         134.6875  138.3397  156.0250 H       1  UNL1        0.1549
     18 C         140.9507  145.2151  158.7387 C.3     1  UNL1        0.0722
     19 C         141.3413  144.7214  160.1001 C.3     1  UNL1        0.0189
     20 C         140.6272  145.2319  161.3165 C.3     1  UNL1        0.0206
     21 C         141.0178  144.7381  162.6780 C.3     1  UNL1        0.0955
     22 N         142.1225  143.7338  162.8231 N.3     1  UNL1       -0.1594
     23 C         142.8366  143.2233  161.6068 C.3     1  UNL1        0.0955
     24 C         142.4460  143.7171  160.2453 C.3     1  UNL1        0.0206
     25 S         142.5131  143.2401  164.1846 S.O2    1  UNL1        0.0438
     26 O         141.1399  142.6658  164.3702 O.2     1  UNL1       -0.1573
     27 O         143.8863  143.8144  163.9989 O.2     1  UNL1       -0.1573
     28 C         142.9037  142.7463  165.5461 C.3     1  UNL1        0.1690
     29 C         143.1339  141.2819  165.7753 C.3     1  UNL1        0.0253
     30 C         142.5723  140.6165  166.9967 C.3     1  UNL1        0.0018
     31 C         142.8026  139.1521  167.2259 C.3     1  UNL1        0.0001
     32 C         143.5945  138.3531  166.2336 C.3     1  UNL1        0.0000
     33 C         144.1561  139.0185  165.0123 C.3     1  UNL1        0.0001
     34 C         143.9258  140.4829  164.7830 C.3     1  UNL1        0.0018
@<TRIPOS>BOND
     1    13    14    1
     2    14    15    2
     3    14    16   am
     4    16     7    1
     5     7     8   ar
     6     8     9   ar
     7     9    10   ar
     8    10    11   ar
     9    11     1    1
    10     1     2    1
    11     2     3    1
    12     3     4    1
    13     4    18    1
    14    18    19    1
    15    19    20    1
    16    20    21    1
    17    21    22    1
    18    22    25    1
    19    25    26    2
    20    25    27    2
    21    25    28    1
    22    28    29    1
    23    29    30    1
    24    30    31    1
    25    31    32    1
    26    32    33    1
    27    33    34    1
    28    22    23    1
    29    23    24    1
    30     4     5    1
    31     5     6    1
    32    11    12   ar
    33    12     7   ar
    34     6     1    1
    35    24    19    1
    36    34    29    1
    37    16    17    1
@<TRIPOS>MOLECULE
*****
 34 37 0 0 0
SMALL
GASTEIGER

@<TRIPOS>ATOM
      1 N         141.3188  137.8652  157.4081 N.pl3   1  UNL1       -0.3046
      2 C         139.8551  138.0525  157.6776 C.3     1  UNL1        0.1081
      3 C         139.3990  139.1072  158.6418 C.3     1  UNL1        0.0938
      4 N         140.4066  139.9746  159.3364 N.3     1  UNL1       -0.2698
      5 C         141.8703  139.7872  159.0669 C.3     1  UNL1        0.0938
      6 C         142.3263  138.7325  158.1027 C.3     1  UNL1        0.1081
      7 C         143.3206  134.8022  155.8715 C.ar    1  UNL1        0.0515
      8 C         142.6871  134.7011  154.5157 C.ar    1  UNL1        0.0148
      9 C         141.5975  135.6547  154.1239 C.ar    1  UNL1        0.0025
     10 C         141.1414  136.7093  155.0880 C.ar    1  UNL1        0.0146
     11 C         141.7749  136.8105  156.4439 C.ar    1  UNL1        0.0492
     12 C         142.8645  135.8569  156.8356 C.ar    1  UNL1        0.0292
     13 C         145.1537  131.5783  157.2844 C.3     1  UNL1        0.0949
     14 C         144.0641  132.5319  156.8927 C.2     1  UNL1        0.2266
     15 O         142.6282  132.1686  157.1303 O.2     1  UNL1       -0.2748
     16 N         144.4103  133.8487  156.2633 N.am    1  UNL1       -0.2839
     17 H         145.3526  134.0871  156.1073 H       1  UNL1        0.1549
     18 C         139.9505  141.0292  160.3006 C.3     1  UNL1        0.0722
     19 C         140.1067  140.8139  161.7768 C.3     1  UNL1        0.0189
     20 C         141.1024  141.6250  162.5519 C.3     1  UNL1        0.0206
     21 C         141.2585  141.4096  164.0281 C.3     1  UNL1        0.0955
     22 N         140.4191  140.3831  164.7292 N.3     1  UNL1       -0.1594
     23 C         139.4235  139.5720  163.9541 C.3     1  UNL1        0.0955
     24 C         139.2673  139.7873  162.4780 C.3     1  UNL1        0.0206
     25 S         140.5753  140.1678  166.2054 S.O2    1  UNL1        0.0438
     26 O         142.0544  139.9964  166.0239 O.2     1  UNL1       -0.1573
     27 O         139.0962  140.3391  166.3869 O.2     1  UNL1       -0.1573
     28 C         140.7316  139.9524  167.6817 C.3     1  UNL1        0.1690
     29 C         141.3421  141.0239  168.5355 C.3     1  UNL1        0.0253
     30 C         140.5512  142.2518  168.8776 C.3     1  UNL1        0.0018
     31 C         141.1618  143.3233  169.7314 C.3     1  UNL1        0.0001
     32 C         142.5631  143.1671  170.2431 C.3     1  UNL1        0.0000
     33 C         143.3539  141.9393  169.9010 C.3     1  UNL1        0.0001
     34 C         142.7434  140.8677  169.0471 C.3     1  UNL1        0.0018
@<TRIPOS>BOND
     1    13    14    1
     2    14    15    2
     3    14    16   am
     4    16     7    1
     5     7     8   ar
     6     8     9   ar
     7     9    10   ar
     8    10    11   ar
     9    11     1    1
    10     1     2    1
    11     2     3    1
    12     3     4    1
    13     4    18    1
    14    18    19    1
    15    19    20    1
    16    20    21    1
    17    21    22    1
    18    22    25    1
    19    25    26    2
    20    25    27    2
    21    25    28    1
    22    28    29    1
    23    29    30    1
    24    30    31    1
    25    31    32    1
    26    32    33    1
    27    33    34    1
    28    22    23    1
    29    23    24    1
    30     4     5    1
    31     5     6    1
    32    11    12   ar
    33    12     7   ar
    34     6     1    1
    35    24    19    1
    36    34    29    1
    37    16    17    1
@<TRIPOS>MOLECULE
*****
 34 37 0 0 0
SMALL
GASTEIGER

@<TRIPOS>ATOM
      1 N         141.6020  135.8839  156.0473 N.pl3   1  UNL1       -0.3046
      2 C         140.3186  136.6262  155.8194 C.3     1  UNL1        0.1081
      3 C         140.0397  137.8917  156.5750 C.3     1  UNL1        0.0938
      4 N         141.0443  138.4149  157.5584 N.3     1  UNL1       -0.2698
      5 C         142.3277  137.6725  157.7863 C.3     1  UNL1        0.0938
      6 C         142.6065  136.4071  157.0307 C.3     1  UNL1        0.1081
      7 C         142.4955  132.0942  155.2796 C.ar    1  UNL1        0.0515
      8 C         142.4386  132.0875  153.7807 C.ar    1  UNL1        0.0148
      9 C         142.1028  133.3464  153.0373 C.ar    1  UNL1        0.0025
     10 C         141.8239  134.6118  153.7928 C.ar    1  UNL1        0.0146
     11 C         141.8808  134.6184  155.2917 C.ar    1  UNL1        0.0492
     12 C         142.2166  133.3596  156.0351 C.ar    1  UNL1        0.0292
     13 C         144.5812  129.3097  157.1892 C.3     1  UNL1        0.0949
     14 C         144.2454  130.5686  156.4459 C.2     1  UNL1        0.2266
     15 O         145.3239  131.5606  156.1254 O.2     1  UNL1       -0.2748
     16 N         142.8312  130.8353  156.0230 N.am    1  UNL1       -0.2839
     17 H         142.1234  130.1842  156.2333 H       1  UNL1        0.1549
     18 C         140.7654  139.6803  158.3140 C.3     1  UNL1        0.0722
     19 C         140.3315  139.6171  159.7484 C.3     1  UNL1        0.0189
     20 C         140.7758  140.6758  160.7137 C.3     1  UNL1        0.0206
     21 C         140.3418  140.6127  162.1482 C.3     1  UNL1        0.0955
     22 N         139.4635  139.4908  162.6174 N.3     1  UNL1       -0.1594
     23 C         139.0192  138.4321  161.6521 C.3     1  UNL1        0.0955
     24 C         139.4532  138.4953  160.2176 C.3     1  UNL1        0.0206
     25 S         139.0296  139.4277  164.0518 S.O2    1  UNL1        0.0438
     26 O         140.2522  138.6257  164.3864 O.2     1  UNL1       -0.1573
     27 O         137.8070  140.2297  163.7172 O.2     1  UNL1       -0.1573
     28 C         138.5957  139.3645  165.4863 C.3     1  UNL1        0.1690
     29 C         139.2362  140.2613  166.5038 C.3     1  UNL1        0.0253
     30 C         139.8461  141.5638  166.0776 C.3     1  UNL1        0.0018
     31 C         140.4866  142.4607  167.0951 C.3     1  UNL1        0.0001
     32 C         140.5174  142.0551  168.5389 C.3     1  UNL1        0.0000
     33 C         139.9075  140.7526  168.9651 C.3     1  UNL1        0.0001
     34 C         139.2669  139.8557  167.9476 C.3     1  UNL1        0.0018
@<TRIPOS>BOND
     1    13    14    1
     2    14    15    2
     3    14    16   am
     4    16     7    1
     5     7     8   ar
     6     8     9   ar
     7     9    10   ar
     8    10    11   ar
     9    11     1    1
    10     1     2    1
    11     2     3    1
    12     3     4    1
    13     4    18    1
    14    18    19    1
    15    19    20    1
    16    20    21    1
    17    21    22    1
    18    22    25    1
    19    25    26    2
    20    25    27    2
    21    25    28    1
    22    28    29    1
    23    29    30    1
    24    30    31    1
    25    31    32    1
    26    32    33    1
    27    33    34    1
    28    22    23    1
    29    23    24    1
    30     4     5    1
    31     5     6    1
    32    11    12   ar
    33    12     7   ar
    34     6     1    1
    35    24    19    1
    36    34    29    1
    37    16    17    1
@<TRIPOS>MOLECULE
*****
 34 37 0 0 0
SMALL
GASTEIGER

@<TRIPOS>ATOM
      1 N         140.1571  138.6255  161.2687 N.pl3   1  UNL1       -0.3046
      2 C         141.6320  138.3784  161.1527 C.3     1  UNL1        0.1081
      3 C         142.2429  138.1017  159.8109 C.3     1  UNL1        0.0938
      4 N         141.3788  138.0722  158.5851 N.3     1  UNL1       -0.2698
      5 C         139.9038  138.3193  158.7012 C.3     1  UNL1        0.0938
      6 C         139.2930  138.5960  160.0429 C.3     1  UNL1        0.1081
      7 C         138.3114  140.5142  164.2312 C.ar    1  UNL1        0.0515
      8 C         138.3244  139.4556  165.2938 C.ar    1  UNL1        0.0148
      9 C         138.9483  138.1203  165.0148 C.ar    1  UNL1        0.0025
     10 C         139.5591  137.8436  163.6731 C.ar    1  UNL1        0.0146
     11 C         139.5462  138.9022  162.6105 C.ar    1  UNL1        0.0492
     12 C         138.9223  140.2375  162.8895 C.ar    1  UNL1        0.0292
     13 C         137.9327  144.3734  165.0754 C.3     1  UNL1        0.0949
     14 C         138.5565  143.0381  164.7964 C.2     1  UNL1        0.2266
     15 O         140.0494  142.8916  164.8034 O.2     1  UNL1       -0.2748
     16 N         137.6876  141.8494  164.5103 N.am    1  UNL1       -0.2839
     17 H         136.7078  141.9456  164.5057 H       1  UNL1        0.1549
     18 C         141.9897  137.7956  157.2434 C.3     1  UNL1        0.0722
     19 C         142.1644  136.3809  156.7762 C.3     1  UNL1        0.0189
     20 C         143.2193  135.5119  157.3943 C.3     1  UNL1        0.0206
     21 C         143.3941  134.0972  156.9271 C.3     1  UNL1        0.0955
     22 N         142.5139  133.5516  155.8419 N.3     1  UNL1       -0.1594
     23 C         141.4590  134.4207  155.2239 C.3     1  UNL1        0.0955
     24 C         141.2843  135.8353  155.6910 C.3     1  UNL1        0.0206
     25 S         142.6887  132.1370  155.3747 S.O2    1  UNL1        0.0438
     26 O         144.1779  132.2908  155.4664 O.2     1  UNL1       -0.1573
     27 O         141.1994  131.9833  155.2831 O.2     1  UNL1       -0.1573
     28 C         142.8635  130.7223  154.9075 C.3     1  UNL1        0.1690
     29 C         142.6501  129.5854  155.8624 C.3     1  UNL1        0.0253
     30 C         141.7741  128.4321  155.4716 C.3     1  UNL1        0.0018
     31 C         141.5608  127.2952  156.4265 C.3     1  UNL1        0.0001
     32 C         142.2234  127.3114  157.7721 C.3     1  UNL1        0.0000
     33 C         143.0993  128.4646  158.1629 C.3     1  UNL1        0.0001
     34 C         143.3127  129.6017  157.2080 C.3     1  UNL1        0.0018
@<TRIPOS>BOND
     1    13    14    1
     2    14    15    2
     3    14    16   am
     4    16     7    1
     5     7     8   ar
     6     8     9   ar
     7     9    10   ar
     8    10    11   ar
     9    11     1    1
    10     1     2    1
    11     2     3    1
    12     3     4    1
    13     4    18    1
    14    18    19    1
    15    19    20    1
    16    20    21    1
    17    21    22    1
    18    22    25    1
    19    25    26    2
    20    25    27    2
    21    25    28    1
    22    28    29    1
    23    29    30    1
    24    30    31    1
    25    31    32    1
    26    32    33    1
    27    33    34    1
    28    22    23    1
    29    23    24    1
    30     4     5    1
    31     5     6    1
    32    11    12   ar
    33    12     7   ar
    34     6     1    1
    35    24    19    1
    36    34    29    1
    37    16    17    1
@<TRIPOS>MOLECULE
*****
 34 37 0 0 0
SMALL
GASTEIGER

@<TRIPOS>ATOM
      1 N         141.7583  135.8344  156.1809 N.pl3   1  UNL1       -0.3046
      2 C         142.8358  136.2289  157.1469 C.3     1  UNL1        0.1081
      3 C         142.6533  137.4323  158.0236 C.3     1  UNL1        0.0938
      4 N         141.3933  138.2412  157.9342 N.3     1  UNL1       -0.2698
      5 C         140.3157  137.8466  156.9680 C.3     1  UNL1        0.0938
      6 C         140.4983  136.6432  156.0914 C.3     1  UNL1        0.1081
      7 C         142.4706  132.1015  155.0369 C.ar    1  UNL1        0.0515
      8 C         142.3059  132.2241  153.5510 C.ar    1  UNL1        0.0148
      9 C         141.9586  133.5501  152.9418 C.ar    1  UNL1        0.0025
     10 C         141.7761  134.7535  153.8183 C.ar    1  UNL1        0.0146
     11 C         141.9408  134.6309  155.3042 C.ar    1  UNL1        0.0492
     12 C         142.2881  133.3049  155.9134 C.ar    1  UNL1        0.0292
     13 C         144.5639  129.1845  156.7277 C.3     1  UNL1        0.0949
     14 C         144.2166  130.5105  156.1185 C.2     1  UNL1        0.2266
     15 O         145.2682  131.5714  155.9816 O.2     1  UNL1       -0.2748
     16 N         142.8179  130.7756  155.6461 N.am    1  UNL1       -0.2839
     17 H         142.1277  130.0792  155.7360 H       1  UNL1        0.1549
     18 C         141.2107  139.4446  158.8108 C.3     1  UNL1        0.0722
     19 C         141.5896  139.3806  160.2607 C.3     1  UNL1        0.0189
     20 C         142.6564  140.2881  160.7978 C.3     1  UNL1        0.0206
     21 C         143.0353  140.2242  162.2478 C.3     1  UNL1        0.0955
     22 N         142.3475  139.2528  163.1606 N.3     1  UNL1       -0.1594
     23 C         141.2807  138.3453  162.6234 C.3     1  UNL1        0.0955
     24 C         140.9018  138.4092  161.1735 C.3     1  UNL1        0.0206
     25 S         142.7264  139.1888  164.6105 S.O2    1  UNL1        0.0438
     26 O         143.2901  140.5762  164.5243 O.2     1  UNL1       -0.1573
     27 O         142.1627  137.8015  164.6966 O.2     1  UNL1       -0.1573
     28 C         143.1054  139.1249  166.0605 C.3     1  UNL1        0.1690
     29 C         142.0999  139.4816  167.1149 C.3     1  UNL1        0.0253
     30 C         140.7029  139.8607  166.7214 C.3     1  UNL1        0.0018
     31 C         139.6974  140.2173  167.7758 C.3     1  UNL1        0.0001
     32 C         140.0888  140.1949  169.2237 C.3     1  UNL1        0.0000
     33 C         141.4858  139.8158  169.6171 C.3     1  UNL1        0.0001
     34 C         142.4913  139.4591  168.5627 C.3     1  UNL1        0.0018
@<TRIPOS>BOND
     1    13    14    1
     2    14    15    2
     3    14    16   am
     4    16     7    1
     5     7     8   ar
     6     8     9   ar
     7     9    10   ar
     8    10    11   ar
     9    11     1    1
    10     1     2    1
    11     2     3    1
    12     3     4    1
    13     4    18    1
    14    18    19    1
    15    19    20    1
    16    20    21    1
    17    21    22    1
    18    22    25    1
    19    25    26    2
    20    25    27    2
    21    25    28    1
    22    28    29    1
    23    29    30    1
    24    30    31    1
    25    31    32    1
    26    32    33    1
    27    33    34    1
    28    22    23    1
    29    23    24    1
    30     4     5    1
    31     5     6    1
    32    11    12   ar
    33    12     7   ar
    34     6     1    1
    35    24    19    1
    36    34    29    1
    37    16    17    1
