@<TRIPOS>MOLECULE
*****
 40 45 0 0 0
SMALL
GASTEIGER

@<TRIPOS>ATOM
      1 C         139.4810  138.1154  164.4436 C.3     1  UNL1        0.1180
      2 C         140.8879  137.7361  164.7996 C.3     1  UNL1        0.0311
      3 C         141.8848  137.4506  163.7159 C.3     1  UNL1        0.0194
      4 C         141.4748  137.5444  162.2760 C.3     1  UNL1        0.0700
      5 C         140.0679  137.9237  161.9199 C.3     1  UNL1        0.0194
      6 C         139.0710  138.2092  163.0038 C.3     1  UNL1        0.0311
      7 C         140.8934  137.7100  162.8349 C.3     1  UNL1        0.1563
      8 O         139.9919  137.9682  163.8149 O.3     1  UNL1       -0.3548
      9 N         142.4718  137.2589  161.1922 N.3     1  UNL1       -0.2926
     10 H         141.9934  137.4118  160.3044 H       1  UNL1        0.1236
     11 C         143.7555  138.0323  161.1313 C.3     1  UNL1        0.1152
     12 C         143.7457  139.5189  161.3309 C.ar    1  UNL1        0.0765
     13 C         143.3996  140.4268  160.1881 C.ar    1  UNL1        0.0193
     14 C         143.3898  141.9134  160.3877 C.ar    1  UNL1        0.0411
     15 C         143.7260  142.4922  161.7301 C.ar    1  UNL1        0.1708
     16 C         144.0720  141.5843  162.8729 C.ar    1  UNL1        0.1682
     17 N         144.0819  140.0977  162.6733 N.ar    1  UNL1       -0.2304
     18 N         144.4082  142.1631  164.2153 N.am    1  UNL1       -0.2639
     19 C         144.3984  143.6497  164.4148 C.2     1  UNL1        0.2718
     20 O         144.7346  144.2285  165.7572 O.2     1  UNL1       -0.2707
     21 C         144.0523  144.5576  163.2720 C.3     1  UNL1        0.2898
     22 O         143.7161  143.9789  161.9296 O.3     1  UNL1       -0.4628
     23 H         144.6354  141.5672  164.9653 H       1  UNL1        0.1565
     24 C         138.4840  138.4009  165.5274 C.3     1  UNL1        0.1444
     25 O         137.8541  137.2693  166.2841 O.3     1  UNL1       -0.3508
     26 C         137.0104  137.5522  167.4916 C.3     1  UNL1        0.1741
     27 C         138.1169  139.8181  165.8544 C.3     1  UNL1        0.0622
     28 C         138.7997  143.1088  162.8619 C.ar    1  UNL1        0.2250
     29 C         139.8757  144.1266  163.0989 C.ar    1  UNL1        0.0593
     30 C         140.7241  144.0476  164.3334 C.ar    1  UNL1        0.0254
     31 C         140.4965  142.9507  165.3309 C.ar    1  UNL1        0.0990
     32 N         141.3449  142.8717  166.5654 N.ar    1  UNL1       -0.2400
     33 C         141.1173  141.7749  167.5629 C.ar    1  UNL1        0.1281
     34 C         140.0413  140.7569  167.3259 C.ar    1  UNL1        0.1567
     35 F         139.8137  139.6601  168.3234 F       1  UNL1       -0.2028
     36 C         139.1929  140.8359  166.0914 C.ar    1  UNL1        0.0285
     37 C         139.4205  141.9329  165.0939 C.ar    1  UNL1        0.1002
     38 N         138.5721  142.0119  163.8594 N.ar    1  UNL1       -0.2104
     39 C         138.3806  142.4812  160.3759 C.3     1  UNL1        0.2542
     40 O         137.9513  143.1878  161.6274 O.3     1  UNL1       -0.4561
@<TRIPOS>BOND
     1    39    40    1
     2    40    28    1
     3    28    29   ar
     4    29    30   ar
     5    30    31   ar
     6    31    32   ar
     7    32    33   ar
     8    33    34   ar
     9    34    35    1
    10    34    36   ar
    11    36    27    1
    12    24    27    1
    13    24    25    1
    14    25    26    1
    15    24     1    1
    16     1     2    1
    17     2     3    1
    18     3     4    1
    19     4     9    1
    20     9    11    1
    21    11    12    1
    22    12    13   ar
    23    13    14   ar
    24    14    15   ar
    25    15    16   ar
    26    16    17   ar
    27    16    18    1
    28    18    19   am
    29    19    20    2
    30    19    21    1
    31    21    22    1
    32     4     5    1
    33     5     6    1
    34     4     7    1
    35     7     8    1
    36    36    37   ar
    37    37    38   ar
    38    38    28   ar
    39    37    31   ar
    40     6     1    1
    41     8     1    1
    42    17    12   ar
    43    22    15    1
    44     9    10    1
    45    18    23    1
@<TRIPOS>MOLECULE
*****
 40 45 0 0 0
SMALL
GASTEIGER

@<TRIPOS>ATOM
      1 C         141.1905  140.4766  166.5314 C.3     1  UNL1        0.1180
      2 C         142.1628  139.5227  165.9031 C.3     1  UNL1        0.0311
      3 C         143.3841  140.0464  165.2074 C.3     1  UNL1        0.0194
      4 C         143.6331  141.5240  165.1398 C.3     1  UNL1        0.0700
      5 C         142.6609  142.4780  165.7681 C.3     1  UNL1        0.0194
      6 C         141.4395  141.9542  166.4639 C.3     1  UNL1        0.0311
      7 C         142.9500  141.2843  165.5319 C.3     1  UNL1        0.1563
      8 O         141.8456  140.8108  166.1611 O.3     1  UNL1       -0.3548
      9 N         144.8545  142.0477  164.4441 N.3     1  UNL1       -0.2926
     10 H         145.6610  141.6563  164.9305 H       1  UNL1        0.1236
     11 C         145.0581  141.7792  162.9824 C.3     1  UNL1        0.1152
     12 C         144.1535  142.4164  161.9697 C.ar    1  UNL1        0.0765
     13 C         144.2867  142.0634  160.5178 C.ar    1  UNL1        0.0193
     14 C         143.3821  142.7006  159.5051 C.ar    1  UNL1        0.0411
     15 C         142.3444  143.6908  159.9441 C.ar    1  UNL1        0.1708
     16 C         142.2113  144.0438  161.3958 C.ar    1  UNL1        0.1682
     17 N         143.1158  143.4066  162.4087 N.ar    1  UNL1       -0.2304
     18 N         141.1736  145.0340  161.8348 N.am    1  UNL1       -0.2639
     19 C         140.2690  145.6712  160.8220 C.2     1  UNL1        0.2718
     20 O         139.2313  146.6613  161.2610 O.2     1  UNL1       -0.2707
     21 C         140.4021  145.3182  159.3702 C.3     1  UNL1        0.2898
     22 O         141.4398  144.3280  158.9312 O.3     1  UNL1       -0.4628
     23 H         141.0862  145.2656  162.7876 H       1  UNL1        0.1565
     24 C         139.9692  139.9529  167.2271 C.3     1  UNL1        0.1444
     25 O         140.0344  139.5812  168.6789 O.3     1  UNL1       -0.3508
     26 C         139.4692  140.5058  169.7159 C.3     1  UNL1        0.1741
     27 C         138.6825  139.8009  166.4711 C.3     1  UNL1        0.0622
     28 C         138.2854  143.0838  163.4191 C.ar    1  UNL1        0.2250
     29 C         138.3097  142.7544  161.9559 C.ar    1  UNL1        0.0593
     30 C         138.4663  141.3308  161.5101 C.ar    1  UNL1        0.0254
     31 C         138.5986  140.2365  162.5274 C.ar    1  UNL1        0.0990
     32 N         138.7552  138.8129  162.0815 N.ar    1  UNL1       -0.2400
     33 C         138.8876  137.7186  163.0988 C.ar    1  UNL1        0.1281
     34 C         138.8633  138.0479  164.5621 C.ar    1  UNL1        0.1567
     35 F         138.9957  136.9537  165.5794 F       1  UNL1       -0.2028
     36 C         138.7067  139.4716  165.0079 C.ar    1  UNL1        0.0285
     37 C         138.5744  140.5659  163.9905 C.ar    1  UNL1        0.1002
     38 N         138.4178  141.9895  164.4364 N.ar    1  UNL1       -0.2104
     39 C         138.5130  144.9030  165.2598 C.3     1  UNL1        0.2542
     40 O         138.1289  144.5074  163.8649 O.3     1  UNL1       -0.4561
@<TRIPOS>BOND
     1    39    40    1
     2    40    28    1
     3    28    29   ar
     4    29    30   ar
     5    30    31   ar
     6    31    32   ar
     7    32    33   ar
     8    33    34   ar
     9    34    35    1
    10    34    36   ar
    11    36    27    1
    12    24    27    1
    13    24    25    1
    14    25    26    1
    15    24     1    1
    16     1     2    1
    17     2     3    1
    18     3     4    1
    19     4     9    1
    20     9    11    1
    21    11    12    1
    22    12    13   ar
    23    13    14   ar
    24    14    15   ar
    25    15    16   ar
    26    16    17   ar
    27    16    18    1
    28    18    19   am
    29    19    20    2
    30    19    21    1
    31    21    22    1
    32     4     5    1
    33     5     6    1
    34     4     7    1
    35     7     8    1
    36    36    37   ar
    37    37    38   ar
    38    38    28   ar
    39    37    31   ar
    40     6     1    1
    41     8     1    1
    42    17    12   ar
    43    22    15    1
    44     9    10    1
    45    18    23    1
@<TRIPOS>MOLECULE
*****
 40 45 0 0 0
SMALL
GASTEIGER

@<TRIPOS>ATOM
      1 C         143.3896  140.3815  160.6766 C.3     1  UNL1        0.1180
      2 C         141.9015  140.4530  160.8510 C.3     1  UNL1        0.0311
      3 C         141.1718  139.3346  161.5341 C.3     1  UNL1        0.0194
      4 C         141.9302  138.1446  162.0428 C.3     1  UNL1        0.0700
      5 C         143.4183  138.0731  161.8684 C.3     1  UNL1        0.0194
      6 C         144.1480  139.1916  161.1853 C.3     1  UNL1        0.0311
      7 C         142.3736  138.7329  161.6750 C.3     1  UNL1        0.1563
      8 O         143.0334  139.7442  161.0574 O.3     1  UNL1       -0.3548
      9 N         141.2005  137.0262  162.7259 N.3     1  UNL1       -0.2926
     10 H         141.5984  136.1560  162.3727 H       1  UNL1        0.1236
     11 C         141.2081  136.9297  164.2228 C.3     1  UNL1        0.1152
     12 C         140.9209  138.1447  165.0542 C.ar    1  UNL1        0.0765
     13 C         139.5140  138.6479  165.1860 C.ar    1  UNL1        0.0193
     14 C         139.2268  139.8629  166.0174 C.ar    1  UNL1        0.0411
     15 C         140.3466  140.5747  166.7170 C.ar    1  UNL1        0.1708
     16 C         141.7535  140.0716  166.5852 C.ar    1  UNL1        0.1682
     17 N         142.0407  138.8565  165.7538 N.ar    1  UNL1       -0.2304
     18 N         142.8732  140.7834  167.2848 N.am    1  UNL1       -0.2639
     19 C         142.5861  141.9984  168.1162 C.2     1  UNL1        0.2718
     20 O         143.7058  142.7103  168.8158 O.2     1  UNL1       -0.2707
     21 C         141.1791  142.5016  168.2481 C.3     1  UNL1        0.2898
     22 O         140.0594  141.7898  167.5485 O.3     1  UNL1       -0.4628
     23 H         143.7966  140.4532  167.1983 H       1  UNL1        0.1565
     24 C         144.1193  141.5000  159.9935 C.3     1  UNL1        0.1444
     25 O         144.1694  141.5582  158.4954 O.3     1  UNL1       -0.3508
     26 C         145.1657  142.4474  157.8123 C.3     1  UNL1        0.1741
     27 C         144.7989  142.5602  160.8084 C.3     1  UNL1        0.0622
     28 C         141.1130  145.1146  161.1819 C.ar    1  UNL1        0.2250
     29 C         140.5830  145.4726  162.5387 C.ar    1  UNL1        0.0593
     30 C         141.2816  144.9791  163.7710 C.ar    1  UNL1        0.0254
     31 C         142.5102  144.1277  163.6465 C.ar    1  UNL1        0.0990
     32 N         143.2088  143.6342  164.8788 N.ar    1  UNL1       -0.2400
     33 C         144.4374  142.7828  164.7543 C.ar    1  UNL1        0.1281
     34 C         144.9674  142.4248  163.3974 C.ar    1  UNL1        0.1567
     35 F         146.1960  141.5733  163.2730 F       1  UNL1       -0.2028
     36 C         144.2689  142.9182  162.1652 C.ar    1  UNL1        0.0285
     37 C         143.0402  143.7697  162.2897 C.ar    1  UNL1        0.1002
     38 N         142.3416  144.2632  161.0575 N.ar    1  UNL1       -0.2104
     39 C         141.0807  145.4884  158.6111 C.3     1  UNL1        0.2542
     40 O         140.4145  145.6081  159.9497 O.3     1  UNL1       -0.4561
@<TRIPOS>BOND
     1    39    40    1
     2    40    28    1
     3    28    29   ar
     4    29    30   ar
     5    30    31   ar
     6    31    32   ar
     7    32    33   ar
     8    33    34   ar
     9    34    35    1
    10    34    36   ar
    11    36    27    1
    12    24    27    1
    13    24    25    1
    14    25    26    1
    15    24     1    1
    16     1     2    1
    17     2     3    1
    18     3     4    1
    19     4     9    1
    20     9    11    1
    21    11    12    1
    22    12    13   ar
    23    13    14   ar
    24    14    15   ar
    25    15    16   ar
    26    16    17   ar
    27    16    18    1
    28    18    19   am
    29    19    20    2
    30    19    21    1
    31    21    22    1
    32     4     5    1
    33     5     6    1
    34     4     7    1
    35     7     8    1
    36    36    37   ar
    37    37    38   ar
    38    38    28   ar
    39    37    31   ar
    40     6     1    1
    41     8     1    1
    42    17    12   ar
    43    22    15    1
    44     9    10    1
    45    18    23    1
@<TRIPOS>MOLECULE
*****
 40 45 0 0 0
SMALL
GASTEIGER

@<TRIPOS>ATOM
      1 C         140.6948  139.9705  160.6822 C.3     1  UNL1        0.1180
      2 C         141.4736  141.2514  160.7355 C.3     1  UNL1        0.0311
      3 C         142.8700  141.2579  161.2832 C.3     1  UNL1        0.0194
      4 C         143.4877  139.9835  161.7776 C.3     1  UNL1        0.0700
      5 C         142.7089  138.7026  161.7243 C.3     1  UNL1        0.0194
      6 C         141.3124  138.6961  161.1766 C.3     1  UNL1        0.0311
      7 C         142.7195  139.9303  161.4861 C.3     1  UNL1        0.1563
      8 O         141.4568  139.9244  160.9909 O.3     1  UNL1       -0.3548
      9 N         144.8841  139.9900  162.3253 N.3     1  UNL1       -0.2926
     10 H         145.4535  140.5297  161.6734 H       1  UNL1        0.1236
     11 C         145.1504  140.5435  163.6937 C.3     1  UNL1        0.1152
     12 C         144.1427  140.3542  164.7885 C.ar    1  UNL1        0.0765
     13 C         143.8063  138.9731  165.2676 C.ar    1  UNL1        0.0193
     14 C         142.7985  138.7838  166.3624 C.ar    1  UNL1        0.0411
     15 C         142.1272  139.9755  166.9782 C.ar    1  UNL1        0.1708
     16 C         142.4636  141.3565  166.4992 C.ar    1  UNL1        0.1682
     17 N         143.4714  141.5459  165.4043 N.ar    1  UNL1       -0.2304
     18 N         141.7923  142.5482  167.1149 N.am    1  UNL1       -0.2639
     19 C         140.7846  142.3589  168.2097 C.2     1  UNL1        0.2718
     20 O         140.1133  143.5506  168.8255 O.2     1  UNL1       -0.2707
     21 C         140.4482  140.9778  168.6888 C.3     1  UNL1        0.2898
     22 O         141.1195  139.7861  168.0730 O.3     1  UNL1       -0.4628
     23 H         142.0131  143.4547  166.8005 H       1  UNL1        0.1565
     24 C         139.2984  139.9640  160.1345 C.3     1  UNL1        0.1444
     25 O         139.0662  139.7041  158.6756 O.3     1  UNL1       -0.3508
     26 C         139.7370  138.5423  158.0047 C.3     1  UNL1        0.1741
     27 C         138.1342  140.2174  161.0458 C.3     1  UNL1        0.0622
     28 C         138.5789  144.3086  162.8662 C.ar    1  UNL1        0.2250
     29 C         138.7997  144.4525  164.3428 C.ar    1  UNL1        0.0593
     30 C         138.8723  143.2327  165.2127 C.ar    1  UNL1        0.0254
     31 C         138.7240  141.8689  164.6059 C.ar    1  UNL1        0.0990
     32 N         138.7966  140.6491  165.4758 N.ar    1  UNL1       -0.2400
     33 C         138.6483  139.2853  164.8691 C.ar    1  UNL1        0.1281
     34 C         138.4275  139.1414  163.3923 C.ar    1  UNL1        0.1567
     35 F         138.2792  137.7777  162.7856 F       1  UNL1       -0.2028
     36 C         138.3549  140.3613  162.5225 C.ar    1  UNL1        0.0285
     37 C         138.5032  141.7251  163.1293 C.ar    1  UNL1        0.1002
     38 N         138.4307  142.9449  162.2594 N.ar    1  UNL1       -0.2104
     39 C         139.7571  146.2850  161.6596 C.3     1  UNL1        0.2542
     40 O         138.5064  145.5285  161.9963 O.3     1  UNL1       -0.4561
@<TRIPOS>BOND
     1    39    40    1
     2    40    28    1
     3    28    29   ar
     4    29    30   ar
     5    30    31   ar
     6    31    32   ar
     7    32    33   ar
     8    33    34   ar
     9    34    35    1
    10    34    36   ar
    11    36    27    1
    12    24    27    1
    13    24    25    1
    14    25    26    1
    15    24     1    1
    16     1     2    1
    17     2     3    1
    18     3     4    1
    19     4     9    1
    20     9    11    1
    21    11    12    1
    22    12    13   ar
    23    13    14   ar
    24    14    15   ar
    25    15    16   ar
    26    16    17   ar
    27    16    18    1
    28    18    19   am
    29    19    20    2
    30    19    21    1
    31    21    22    1
    32     4     5    1
    33     5     6    1
    34     4     7    1
    35     7     8    1
    36    36    37   ar
    37    37    38   ar
    38    38    28   ar
    39    37    31   ar
    40     6     1    1
    41     8     1    1
    42    17    12   ar
    43    22    15    1
    44     9    10    1
    45    18    23    1
@<TRIPOS>MOLECULE
*****
 40 45 0 0 0
SMALL
GASTEIGER

@<TRIPOS>ATOM
      1 C         143.2927  138.9898  161.7751 C.3     1  UNL1        0.1180
      2 C         143.7804  138.6975  163.1632 C.3     1  UNL1        0.0311
      3 C         144.6502  139.6894  163.8769 C.3     1  UNL1        0.0194
      4 C         145.0324  140.9737  163.2026 C.3     1  UNL1        0.0700
      5 C         144.5447  141.2660  161.8145 C.3     1  UNL1        0.0194
      6 C         143.6748  140.2740  161.1008 C.3     1  UNL1        0.0311
      7 C         144.5538  140.4608  162.7715 C.3     1  UNL1        0.1563
      8 O         143.7672  139.5639  162.1261 O.3     1  UNL1       -0.3548
      9 N         145.9022  141.9656  163.9163 N.3     1  UNL1       -0.2926
     10 H         146.4951  142.4000  163.2090 H       1  UNL1        0.1236
     11 C         145.2789  143.0804  164.7029 C.3     1  UNL1        0.1152
     12 C         143.8053  143.3398  164.5977 C.ar    1  UNL1        0.0765
     13 C         142.8588  142.6921  165.5646 C.ar    1  UNL1        0.0193
     14 C         141.3852  142.9515  165.4594 C.ar    1  UNL1        0.0411
     15 C         140.8580  143.8586  164.3874 C.ar    1  UNL1        0.1708
     16 C         141.8044  144.5063  163.4206 C.ar    1  UNL1        0.1682
     17 N         143.2781  144.2469  163.5258 N.ar    1  UNL1       -0.2304
     18 N         141.2771  145.4135  162.3487 N.am    1  UNL1       -0.2639
     19 C         139.8035  145.6729  162.2435 C.2     1  UNL1        0.2718
     20 O         139.2763  146.5800  161.1715 O.2     1  UNL1       -0.2707
     21 C         138.8570  145.0251  163.2103 C.3     1  UNL1        0.2898
     22 O         139.3843  144.1180  164.2823 O.3     1  UNL1       -0.4628
     23 H         141.8983  145.8386  161.7141 H       1  UNL1        0.1565
     24 C         142.4229  137.9979  161.0614 C.3     1  UNL1        0.1444
     25 O         142.8741  137.4046  159.7597 O.3     1  UNL1       -0.3508
     26 C         142.7110  138.1793  158.4858 C.3     1  UNL1        0.1741
     27 C         141.1017  137.5992  161.6493 C.3     1  UNL1        0.0622
     28 C         139.7752  139.7529  165.3712 C.ar    1  UNL1        0.2250
     29 C         138.6133  140.6999  165.3159 C.ar    1  UNL1        0.0593
     30 C         137.8936  140.9290  164.0200 C.ar    1  UNL1        0.0254
     31 C         138.3357  140.2112  162.7794 C.ar    1  UNL1        0.0990
     32 N         137.6159  140.4403  161.4834 N.ar    1  UNL1       -0.2400
     33 C         138.0580  139.7225  160.2428 C.ar    1  UNL1        0.1281
     34 C         139.2200  138.7754  160.2981 C.ar    1  UNL1        0.1567
     35 F         139.6621  138.0575  159.0575 F       1  UNL1       -0.2028
     36 C         139.9398  138.5462  161.5940 C.ar    1  UNL1        0.0285
     37 C         139.4976  139.2642  162.8347 C.ar    1  UNL1        0.1002
     38 N         140.2174  139.0350  164.1306 N.ar    1  UNL1       -0.2104
     39 C         141.9790  139.3055  166.6724 C.3     1  UNL1        0.2542
     40 O         140.4950  139.5237  166.6671 O.3     1  UNL1       -0.4561
@<TRIPOS>BOND
     1    39    40    1
     2    40    28    1
     3    28    29   ar
     4    29    30   ar
     5    30    31   ar
     6    31    32   ar
     7    32    33   ar
     8    33    34   ar
     9    34    35    1
    10    34    36   ar
    11    36    27    1
    12    24    27    1
    13    24    25    1
    14    25    26    1
    15    24     1    1
    16     1     2    1
    17     2     3    1
    18     3     4    1
    19     4     9    1
    20     9    11    1
    21    11    12    1
    22    12    13   ar
    23    13    14   ar
    24    14    15   ar
    25    15    16   ar
    26    16    17   ar
    27    16    18    1
    28    18    19   am
    29    19    20    2
    30    19    21    1
    31    21    22    1
    32     4     5    1
    33     5     6    1
    34     4     7    1
    35     7     8    1
    36    36    37   ar
    37    37    38   ar
    38    38    28   ar
    39    37    31   ar
    40     6     1    1
    41     8     1    1
    42    17    12   ar
    43    22    15    1
    44     9    10    1
    45    18    23    1
@<TRIPOS>MOLECULE
*****
 40 45 0 0 0
SMALL
GASTEIGER

@<TRIPOS>ATOM
      1 C         138.2516  141.1115  160.7645 C.3     1  UNL1        0.1180
      2 C         137.4916  140.9731  162.0503 C.3     1  UNL1        0.0311
      3 C         137.5189  142.0814  163.0607 C.3     1  UNL1        0.0194
      4 C         138.3062  143.3282  162.7852 C.3     1  UNL1        0.0700
      5 C         139.0661  143.4666  161.4994 C.3     1  UNL1        0.0194
      6 C         139.0388  142.3582  160.4890 C.3     1  UNL1        0.0311
      7 C         138.3213  142.7479  162.2014 C.3     1  UNL1        0.1563
      8 O         138.2966  141.7457  161.2877 O.3     1  UNL1       -0.3548
      9 N         138.3335  144.4365  163.7956 N.3     1  UNL1       -0.2926
     10 H         137.4576  144.3827  164.3154 H       1  UNL1        0.1236
     11 C         139.4363  144.4993  164.8105 C.3     1  UNL1        0.1152
     12 C         140.8425  144.1626  164.4117 C.ar    1  UNL1        0.0765
     13 C         141.6884  145.1842  163.7109 C.ar    1  UNL1        0.0193
     14 C         143.0947  144.8475  163.3122 C.ar    1  UNL1        0.0411
     15 C         143.6552  143.4894  163.6142 C.ar    1  UNL1        0.1708
     16 C         142.8094  142.4679  164.3150 C.ar    1  UNL1        0.1682
     17 N         141.4031  142.8045  164.7138 N.ar    1  UNL1       -0.2304
     18 N         143.3699  141.1097  164.6171 N.am    1  UNL1       -0.2639
     19 C         144.7762  140.7731  164.2183 C.2     1  UNL1        0.2718
     20 O         145.3367  139.4149  164.5204 O.2     1  UNL1       -0.2707
     21 C         145.6221  141.7946  163.5175 C.3     1  UNL1        0.2898
     22 O         145.0615  143.1528  163.2155 O.3     1  UNL1       -0.4628
     23 H         142.8148  140.4393  165.0770 H       1  UNL1        0.1565
     24 C         138.2242  140.0032  159.7542 C.3     1  UNL1        0.1444
     25 O         137.5612  140.2156  158.4256 O.3     1  UNL1       -0.3508
     26 C         138.3493  140.7641  157.2732 C.3     1  UNL1        0.1741
     27 C         138.8600  138.6823  160.0724 C.3     1  UNL1        0.0622
     28 C         139.7517  137.6686  164.3651 C.ar    1  UNL1        0.2250
     29 C         141.1723  137.6159  164.8437 C.ar    1  UNL1        0.0593
     30 C         142.2956  137.9012  163.8915 C.ar    1  UNL1        0.0254
     31 C         141.9984  138.2391  162.4607 C.ar    1  UNL1        0.0990
     32 N         143.1218  138.5243  161.5085 N.ar    1  UNL1       -0.2400
     33 C         142.8246  138.8623  160.0776 C.ar    1  UNL1        0.1281
     34 C         141.4039  138.9149  159.5989 C.ar    1  UNL1        0.1567
     35 F         141.1067  139.2528  158.1680 F       1  UNL1       -0.2028
     36 C         140.2806  138.6297  160.5511 C.ar    1  UNL1        0.0285
     37 C         140.5779  138.2917  161.9820 C.ar    1  UNL1        0.1002
     38 N         139.4545  138.0065  162.9342 N.ar    1  UNL1       -0.2104
     39 C         138.1324  138.4601  166.2362 C.3     1  UNL1        0.2542
     40 O         138.6284  137.3833  165.3173 O.3     1  UNL1       -0.4561
@<TRIPOS>BOND
     1    39    40    1
     2    40    28    1
     3    28    29   ar
     4    29    30   ar
     5    30    31   ar
     6    31    32   ar
     7    32    33   ar
     8    33    34   ar
     9    34    35    1
    10    34    36   ar
    11    36    27    1
    12    24    27    1
    13    24    25    1
    14    25    26    1
    15    24     1    1
    16     1     2    1
    17     2     3    1
    18     3     4    1
    19     4     9    1
    20     9    11    1
    21    11    12    1
    22    12    13   ar
    23    13    14   ar
    24    14    15   ar
    25    15    16   ar
    26    16    17   ar
    27    16    18    1
    28    18    19   am
    29    19    20    2
    30    19    21    1
    31    21    22    1
    32     4     5    1
    33     5     6    1
    34     4     7    1
    35     7     8    1
    36    36    37   ar
    37    37    38   ar
    38    38    28   ar
    39    37    31   ar
    40     6     1    1
    41     8     1    1
    42    17    12   ar
    43    22    15    1
    44     9    10    1
    45    18    23    1
@<TRIPOS>MOLECULE
*****
 40 45 0 0 0
SMALL
GASTEIGER

@<TRIPOS>ATOM
      1 C         141.8070  140.3066  164.8174 C.3     1  UNL1        0.1180
      2 C         141.3273  141.1945  165.9271 C.3     1  UNL1        0.0311
      3 C         139.9620  141.8118  165.8569 C.3     1  UNL1        0.0194
      4 C         139.0763  141.5411  164.6769 C.3     1  UNL1        0.0700
      5 C         139.5560  140.6531  163.5672 C.3     1  UNL1        0.0194
      6 C         140.9213  140.0359  163.6375 C.3     1  UNL1        0.0311
      7 C         139.8165  141.1804  164.6709 C.3     1  UNL1        0.1563
      8 O         141.0510  140.6222  164.7344 O.3     1  UNL1       -0.3548
      9 N         137.7111  142.1583  164.6066 N.3     1  UNL1       -0.2926
     10 H         137.3556  142.1964  165.5620 H       1  UNL1        0.1236
     11 C         137.5371  143.5300  164.0249 C.3     1  UNL1        0.1152
     12 C         138.5152  144.0440  163.0105 C.ar    1  UNL1        0.0765
     13 C         139.5683  145.0317  163.4173 C.ar    1  UNL1        0.0193
     14 C         140.5464  145.5457  162.4029 C.ar    1  UNL1        0.0411
     15 C         140.4714  145.0720  160.9816 C.ar    1  UNL1        0.1708
     16 C         139.4183  144.0844  160.5748 C.ar    1  UNL1        0.1682
     17 N         138.4402  143.5703  161.5892 N.ar    1  UNL1       -0.2304
     18 N         139.3434  143.6108  159.1535 N.am    1  UNL1       -0.2639
     19 C         140.3214  144.1248  158.1390 C.2     1  UNL1        0.2718
     20 O         140.2465  143.6511  156.7178 O.2     1  UNL1       -0.2707
     21 C         141.3746  145.1125  158.5459 C.3     1  UNL1        0.2898
     22 O         141.4496  145.5861  159.9672 O.3     1  UNL1       -0.4628
     23 H         138.6522  142.9625  158.8864 H       1  UNL1        0.1565
     24 C         143.1722  139.6893  164.8877 C.3     1  UNL1        0.1444
     25 O         143.3309  138.2697  165.3453 O.3     1  UNL1       -0.3508
     26 C         143.7760  137.9791  166.7479 C.3     1  UNL1        0.1741
     27 C         144.3790  140.4917  164.5002 C.3     1  UNL1        0.0622
     28 C         143.8964  140.2499  160.0327 C.ar    1  UNL1        0.2250
     29 C         143.7356  141.5047  159.2267 C.ar    1  UNL1        0.0593
     30 C         143.7356  142.8401  159.9099 C.ar    1  UNL1        0.0254
     31 C         143.8965  142.9207  161.3991 C.ar    1  UNL1        0.0990
     32 N         143.8965  144.2561  162.0822 N.ar    1  UNL1       -0.2400
     33 C         144.0574  144.3367  163.5714 C.ar    1  UNL1        0.1281
     34 C         144.2182  143.0819  164.3774 C.ar    1  UNL1        0.1567
     35 F         144.3790  143.1625  165.8666 F       1  UNL1       -0.2028
     36 C         144.2181  141.7465  163.6942 C.ar    1  UNL1        0.0285
     37 C         144.0573  141.6659  162.2050 C.ar    1  UNL1        0.1002
     38 N         144.0573  140.3305  161.5218 N.ar    1  UNL1       -0.2104
     39 C         142.6481  138.0832  159.3279 C.3     1  UNL1        0.2542
     40 O         143.8964  138.9145  159.3495 O.3     1  UNL1       -0.4561
@<TRIPOS>BOND
     1    39    40    1
     2    40    28    1
     3    28    29   ar
     4    29    30   ar
     5    30    31   ar
     6    31    32   ar
     7    32    33   ar
     8    33    34   ar
     9    34    35    1
    10    34    36   ar
    11    36    27    1
    12    24    27    1
    13    24    25    1
    14    25    26    1
    15    24     1    1
    16     1     2    1
    17     2     3    1
    18     3     4    1
    19     4     9    1
    20     9    11    1
    21    11    12    1
    22    12    13   ar
    23    13    14   ar
    24    14    15   ar
    25    15    16   ar
    26    16    17   ar
    27    16    18    1
    28    18    19   am
    29    19    20    2
    30    19    21    1
    31    21    22    1
    32     4     5    1
    33     5     6    1
    34     4     7    1
    35     7     8    1
    36    36    37   ar
    37    37    38   ar
    38    38    28   ar
    39    37    31   ar
    40     6     1    1
    41     8     1    1
    42    17    12   ar
    43    22    15    1
    44     9    10    1
    45    18    23    1
@<TRIPOS>MOLECULE
*****
 40 45 0 0 0
SMALL
GASTEIGER

@<TRIPOS>ATOM
      1 C         138.1902  141.0553  160.9479 C.3     1  UNL1        0.1180
      2 C         138.9351  142.3271  160.6693 C.3     1  UNL1        0.0311
      3 C         138.9261  143.4378  161.6774 C.3     1  UNL1        0.0194
      4 C         138.1724  143.2766  162.9642 C.3     1  UNL1        0.0700
      5 C         137.4275  142.0048  163.2429 C.3     1  UNL1        0.0194
      6 C         137.4365  140.8941  162.2347 C.3     1  UNL1        0.0311
      7 C         138.1482  142.6403  162.4423 C.3     1  UNL1        0.1563
      8 O         138.1562  141.6360  161.5307 O.3     1  UNL1       -0.3548
      9 N         138.1634  144.3873  163.9723 N.3     1  UNL1       -0.2926
     10 H         137.4713  144.1380  164.6789 H       1  UNL1        0.1236
     11 C         139.4221  144.7443  164.7060 C.3     1  UNL1        0.1152
     12 C         140.2830  143.6630  165.2887 C.ar    1  UNL1        0.0765
     13 C         141.5726  143.2889  164.6199 C.ar    1  UNL1        0.0193
     14 C         142.4335  142.2076  165.2025 C.ar    1  UNL1        0.0411
     15 C         142.0050  141.5004  166.4539 C.ar    1  UNL1        0.1708
     16 C         140.7155  141.8744  167.1228 C.ar    1  UNL1        0.1682
     17 N         139.8545  142.9558  166.5401 N.ar    1  UNL1       -0.2304
     18 N         140.2870  141.1671  168.3742 N.am    1  UNL1       -0.2639
     19 C         141.1479  140.0858  168.9569 C.2     1  UNL1        0.2718
     20 O         140.7194  139.3785  170.2083 O.2     1  UNL1       -0.2707
     21 C         142.4375  139.7117  168.2880 C.3     1  UNL1        0.2898
     22 O         142.8660  140.4190  167.0366 O.3     1  UNL1       -0.4628
     23 H         139.4407  141.4126  168.8132 H       1  UNL1        0.1565
     24 C         138.1992  139.9446  159.9398 C.3     1  UNL1        0.1444
     25 O         137.4294  140.0870  158.6603 O.3     1  UNL1       -0.3508
     26 C         138.0989  140.6477  157.4407 C.3     1  UNL1        0.1741
     27 C         138.9778  138.6916  160.2112 C.3     1  UNL1        0.0622
     28 C         139.9323  137.9135  164.5395 C.ar    1  UNL1        0.2250
     29 C         141.3497  138.0011  165.0224 C.ar    1  UNL1        0.0593
     30 C         142.4490  138.3480  164.0625 C.ar    1  UNL1        0.0254
     31 C         142.1309  138.6074  162.6198 C.ar    1  UNL1        0.0990
     32 N         143.2301  138.9543  161.6600 N.ar    1  UNL1       -0.2400
     33 C         142.9120  139.2137  160.2173 C.ar    1  UNL1        0.1281
     34 C         141.4945  139.1261  159.7343 C.ar    1  UNL1        0.1567
     35 F         141.1764  139.3855  158.2916 F       1  UNL1       -0.2028
     36 C         140.3953  138.7792  160.6941 C.ar    1  UNL1        0.0285
     37 C         140.7135  138.5198  162.1369 C.ar    1  UNL1        0.1002
     38 N         139.6142  138.1729  163.0967 N.ar    1  UNL1       -0.2104
     39 C         138.1150  138.6540  166.2421 C.3     1  UNL1        0.2542
     40 O         138.8330  137.5666  165.4993 O.3     1  UNL1       -0.4561
@<TRIPOS>BOND
     1    39    40    1
     2    40    28    1
     3    28    29   ar
     4    29    30   ar
     5    30    31   ar
     6    31    32   ar
     7    32    33   ar
     8    33    34   ar
     9    34    35    1
    10    34    36   ar
    11    36    27    1
    12    24    27    1
    13    24    25    1
    14    25    26    1
    15    24     1    1
    16     1     2    1
    17     2     3    1
    18     3     4    1
    19     4     9    1
    20     9    11    1
    21    11    12    1
    22    12    13   ar
    23    13    14   ar
    24    14    15   ar
    25    15    16   ar
    26    16    17   ar
    27    16    18    1
    28    18    19   am
    29    19    20    2
    30    19    21    1
    31    21    22    1
    32     4     5    1
    33     5     6    1
    34     4     7    1
    35     7     8    1
    36    36    37   ar
    37    37    38   ar
    38    38    28   ar
    39    37    31   ar
    40     6     1    1
    41     8     1    1
    42    17    12   ar
    43    22    15    1
    44     9    10    1
    45    18    23    1
@<TRIPOS>MOLECULE
*****
 40 45 0 0 0
SMALL
GASTEIGER

@<TRIPOS>ATOM
      1 C         139.8340  142.2294  166.4056 C.3     1  UNL1        0.1180
      2 C         139.4666  143.2869  165.4072 C.3     1  UNL1        0.0311
      3 C         138.5146  142.9680  164.2928 C.3     1  UNL1        0.0194
      4 C         137.9301  141.5914  164.1766 C.3     1  UNL1        0.0700
      5 C         138.2975  140.5339  165.1749 C.3     1  UNL1        0.0194
      6 C         139.2495  140.8529  166.2894 C.3     1  UNL1        0.0311
      7 C         138.4474  141.7189  164.8043 C.3     1  UNL1        0.1563
      8 O         139.3082  142.0073  165.8121 O.3     1  UNL1       -0.3548
      9 N         136.9781  141.2724  163.0622 N.3     1  UNL1       -0.2926
     10 H         136.5680  142.1571  162.7630 H       1  UNL1        0.1236
     11 C         137.4751  140.5852  161.8249 C.3     1  UNL1        0.1152
     12 C         138.8229  140.9310  161.2649 C.ar    1  UNL1        0.0765
     13 C         139.9331  139.9230  161.3054 C.ar    1  UNL1        0.0193
     14 C         141.2809  140.2689  160.7454 C.ar    1  UNL1        0.0411
     15 C         141.5186  141.6227  160.1447 C.ar    1  UNL1        0.1708
     16 C         140.4085  142.6306  160.1041 C.ar    1  UNL1        0.1682
     17 N         139.0606  142.2848  160.6642 N.ar    1  UNL1       -0.2304
     18 N         140.6462  143.9844  159.5035 N.am    1  UNL1       -0.2639
     19 C         141.9941  144.3302  158.9434 C.2     1  UNL1        0.2718
     20 O         142.2318  145.6840  158.3428 O.2     1  UNL1       -0.2707
     21 C         143.1043  143.3222  158.9840 C.3     1  UNL1        0.2898
     22 O         142.8665  141.9685  159.5846 O.3     1  UNL1       -0.4628
     23 H         139.9176  144.6459  159.4768 H       1  UNL1        0.1565
     24 C         140.7859  142.5483  167.5200 C.3     1  UNL1        0.1444
     25 O         140.2619  143.0444  168.8351 O.3     1  UNL1       -0.3508
     26 C         141.0790  142.8722  170.0811 C.3     1  UNL1        0.1741
     27 C         142.2619  142.3712  167.3195 C.3     1  UNL1        0.0622
     28 C         144.0765  142.2864  163.2024 C.ar    1  UNL1        0.2250
     29 C         144.6085  141.0000  162.6437 C.ar    1  UNL1        0.0593
     30 C         144.5355  139.7419  163.4572 C.ar    1  UNL1        0.0254
     31 C         143.9307  139.7702  164.8295 C.ar    1  UNL1        0.0990
     32 N         143.8578  138.5121  165.6431 N.ar    1  UNL1       -0.2400
     33 C         143.2529  138.5404  167.0154 C.ar    1  UNL1        0.1281
     34 C         142.7209  139.8268  167.5742 C.ar    1  UNL1        0.1567
     35 F         142.1161  139.8550  168.9466 F       1  UNL1       -0.2028
     36 C         142.7938  141.0849  166.7607 C.ar    1  UNL1        0.0285
     37 C         143.3987  141.0566  165.3883 C.ar    1  UNL1        0.1002
     38 N         143.4717  142.3147  164.5747 N.ar    1  UNL1       -0.2104
     39 C         143.1013  144.6050  162.5521 C.3     1  UNL1        0.2542
     40 O         144.1494  143.5445  162.3889 O.3     1  UNL1       -0.4561
@<TRIPOS>BOND
     1    39    40    1
     2    40    28    1
     3    28    29   ar
     4    29    30   ar
     5    30    31   ar
     6    31    32   ar
     7    32    33   ar
     8    33    34   ar
     9    34    35    1
    10    34    36   ar
    11    36    27    1
    12    24    27    1
    13    24    25    1
    14    25    26    1
    15    24     1    1
    16     1     2    1
    17     2     3    1
    18     3     4    1
    19     4     9    1
    20     9    11    1
    21    11    12    1
    22    12    13   ar
    23    13    14   ar
    24    14    15   ar
    25    15    16   ar
    26    16    17   ar
    27    16    18    1
    28    18    19   am
    29    19    20    2
    30    19    21    1
    31    21    22    1
    32     4     5    1
    33     5     6    1
    34     4     7    1
    35     7     8    1
    36    36    37   ar
    37    37    38   ar
    38    38    28   ar
    39    37    31   ar
    40     6     1    1
    41     8     1    1
    42    17    12   ar
    43    22    15    1
    44     9    10    1
    45    18    23    1
