@<TRIPOS>MOLECULE
*****
 29 32 0 0 0
SMALL
GASTEIGER

@<TRIPOS>ATOM
      1 N         140.7567  140.1088  165.5586 N.ar    1  UNL1       -0.2915
      2 C         141.4562  140.5181  164.2964 C.ar    1  UNL1        0.1658
      3 N         140.4606  140.4627  163.1758 N.ar    1  UNL1       -0.2282
      4 C         139.1457  140.0193  163.7454 C.ar    1  UNL1        0.0885
      5 C         139.3287  139.8006  165.2181 C.ar    1  UNL1        0.0580
      6 C         138.2697  139.3523  166.1811 C.3     1  UNL1        0.0517
      7 C         143.2351  139.7654  171.0120 C.3     1  UNL1        0.0521
      8 C         142.6155  139.8512  169.6487 C.ar    1  UNL1        0.0595
      9 C         141.5316  140.8524  169.3792 C.ar    1  UNL1        0.0162
     10 C         140.9120  140.9383  168.0158 C.ar    1  UNL1        0.0203
     11 C         141.3763  140.0230  166.9220 C.ar    1  UNL1        0.0842
     12 C         142.4602  139.0218  167.1915 C.ar    1  UNL1        0.1159
     13 N         143.0798  138.9359  168.5548 N.ar    1  UNL1       -0.2466
     14 C         142.8982  140.9133  164.1759 C.ar    1  UNL1        0.1261
     15 N         143.9456  139.8660  163.9383 N.ar    1  UNL1       -0.2399
     16 C         145.3875  140.2612  163.8178 C.ar    1  UNL1        0.0990
     17 C         145.7822  141.7036  163.9349 C.ar    1  UNL1        0.0215
     18 C         144.7349  142.7508  164.1725 C.ar    1  UNL1        0.0146
     19 C         143.2929  142.3556  164.2930 C.ar    1  UNL1        0.0783
     20 CL        142.2456  143.4029  164.5306 Cl      1  UNL1       -0.0806
     21 C         137.8716  139.8281  162.9773 C.3     1  UNL1        0.1163
     22 N         136.9513  140.9905  162.7499 N.3     1  UNL1       -0.2934
     23 H         136.1193  140.8225  163.3157 H       1  UNL1        0.1236
     24 C         137.4120  142.3838  163.0606 C.3     1  UNL1        0.0571
     25 C         137.3766  143.0446  164.4067 C.3     1  UNL1        0.0186
     26 C         137.9318  144.4301  164.2577 C.3     1  UNL1        0.0367
     27 C         138.3104  144.6256  162.8194 C.3     1  UNL1        0.1624
     28 F         138.9056  145.8675  162.2253 F       1  UNL1       -0.2372
     29 C         137.9891  143.3608  162.0796 C.3     1  UNL1        0.0510
@<TRIPOS>BOND
     1     7     8    1
     2     8     9   ar
     3     9    10   ar
     4    10    11   ar
     5    11     1    1
     6     1     2   ar
     7     2    14    1
     8    14    15   ar
     9    15    16   ar
    10    16    17   ar
    11    17    18   ar
    12    18    19   ar
    13    19    20    1
    14     2     3   ar
    15     3     4   ar
    16     4    21    1
    17    21    22    1
    18    24    22    1
    19    24    25    1
    20    25    26    1
    21    26    27    1
    22    27    28    1
    23    27    29    1
    24     4     5   ar
    25     5     6    1
    26    11    12   ar
    27    12    13   ar
    28    13     8   ar
    29     5     1   ar
    30    19    14   ar
    31    29    24    1
    32    22    23    1
@<TRIPOS>MOLECULE
*****
 29 32 0 0 0
SMALL
GASTEIGER

@<TRIPOS>ATOM
      1 N         140.8200  139.5004  165.2914 N.ar    1  UNL1       -0.2915
      2 C         141.5676  139.9538  164.0726 C.ar    1  UNL1        0.1658
      3 N         140.7862  139.5292  162.8647 N.ar    1  UNL1       -0.2282
      4 C         139.5556  138.8133  163.3369 C.ar    1  UNL1        0.0885
      5 C         139.5765  138.7954  164.8367 C.ar    1  UNL1        0.0580
      6 C         138.5364  138.1806  165.7256 C.3     1  UNL1        0.0517
      7 C         142.5072  140.3559  170.9854 C.3     1  UNL1        0.0521
      8 C         142.0854  140.1420  169.5619 C.ar    1  UNL1        0.0595
      9 C         140.7967  140.7274  169.0655 C.ar    1  UNL1        0.0162
     10 C         140.3749  140.5135  167.6420 C.ar    1  UNL1        0.0203
     11 C         141.2418  139.7142  166.7149 C.ar    1  UNL1        0.0842
     12 C         142.5305  139.1288  167.2113 C.ar    1  UNL1        0.1159
     13 N         142.9523  139.3427  168.6348 N.ar    1  UNL1       -0.2466
     14 C         142.8684  140.7009  164.0634 C.ar    1  UNL1        0.1261
     15 N         144.1449  139.9803  163.7445 N.ar    1  UNL1       -0.2399
     16 C         145.4456  140.7273  163.7353 C.ar    1  UNL1        0.0990
     17 C         145.4699  142.1948  164.0448 C.ar    1  UNL1        0.0215
     18 C         144.1935  142.9153  164.3636 C.ar    1  UNL1        0.0146
     19 C         142.8928  142.1683  164.3729 C.ar    1  UNL1        0.0783
     20 CL        141.6164  142.8889  164.6917 Cl      1  UNL1       -0.0806
     21 C         138.4910  138.2194  162.4629 C.3     1  UNL1        0.1163
     22 N         137.4966  139.1115  161.7808 N.3     1  UNL1       -0.2934
     23 H         136.5878  138.9137  162.1995 H       1  UNL1        0.1236
     24 C         137.6756  140.6003  161.8178 C.3     1  UNL1        0.0571
     25 C         138.2776  141.4432  160.7328 C.3     1  UNL1        0.0186
     26 C         138.2582  142.8714  161.1907 C.3     1  UNL1        0.0367
     27 C         137.6440  142.9113  162.5588 C.3     1  UNL1        0.1624
     28 F         137.4279  144.1391  163.3927 F       1  UNL1       -0.2372
     29 C         137.2840  141.5076  162.9462 C.3     1  UNL1        0.0510
@<TRIPOS>BOND
     1     7     8    1
     2     8     9   ar
     3     9    10   ar
     4    10    11   ar
     5    11     1    1
     6     1     2   ar
     7     2    14    1
     8    14    15   ar
     9    15    16   ar
    10    16    17   ar
    11    17    18   ar
    12    18    19   ar
    13    19    20    1
    14     2     3   ar
    15     3     4   ar
    16     4    21    1
    17    21    22    1
    18    24    22    1
    19    24    25    1
    20    25    26    1
    21    26    27    1
    22    27    28    1
    23    27    29    1
    24     4     5   ar
    25     5     6    1
    26    11    12   ar
    27    12    13   ar
    28    13     8   ar
    29     5     1   ar
    30    19    14   ar
    31    29    24    1
    32    22    23    1
@<TRIPOS>MOLECULE
*****
 29 32 0 0 0
SMALL
GASTEIGER

@<TRIPOS>ATOM
      1 N         139.5612  140.9097  165.1441 N.ar    1  UNL1       -0.2915
      2 C         140.5573  141.9065  165.6579 C.ar    1  UNL1        0.1658
      3 N         140.6738  141.7227  167.1420 N.ar    1  UNL1       -0.2282
      4 C         139.7496  140.6122  167.5455 C.ar    1  UNL1        0.0885
      5 C         139.0620  140.1097  166.3107 C.ar    1  UNL1        0.0580
      6 C         138.0525  139.0018  166.2527 C.3     1  UNL1        0.0517
      7 C         137.8702  140.2396  159.4264 C.3     1  UNL1        0.0521
      8 C         138.2930  140.4071  160.8558 C.ar    1  UNL1        0.0595
      9 C         139.5663  139.7793  161.3398 C.ar    1  UNL1        0.0162
     10 C         139.9891  139.9468  162.7692 C.ar    1  UNL1        0.0203
     11 C         139.1384  140.7421  163.7147 C.ar    1  UNL1        0.0842
     12 C         137.8651  141.3699  163.2306 C.ar    1  UNL1        0.1159
     13 N         137.4423  141.2024  161.8012 N.ar    1  UNL1       -0.2466
     14 C         141.3056  142.9109  164.8325 C.ar    1  UNL1        0.1261
     15 N         142.6913  142.6010  164.3486 N.ar    1  UNL1       -0.2399
     16 C         143.4396  143.6054  163.5232 C.ar    1  UNL1        0.0990
     17 C         142.8023  144.9196  163.1817 C.ar    1  UNL1        0.0215
     18 C         141.4167  145.2295  163.6655 C.ar    1  UNL1        0.0146
     19 C         140.6684  144.2251  164.4909 C.ar    1  UNL1        0.0783
     20 CL        139.2828  144.5351  164.9748 Cl      1  UNL1       -0.0806
     21 C         139.5484  140.0950  168.9390 C.3     1  UNL1        0.1163
     22 N         140.7240  139.9361  169.8571 N.3     1  UNL1       -0.2934
     23 H         141.2642  139.1438  169.5094 H       1  UNL1        0.1236
     24 C         141.6886  141.0695  170.0434 C.3     1  UNL1        0.0571
     25 C         141.3553  142.4332  170.5720 C.3     1  UNL1        0.0186
     26 C         142.6167  143.2447  170.5891 C.3     1  UNL1        0.0367
     27 C         143.7296  142.3826  170.0710 C.3     1  UNL1        0.1624
     28 F         145.1641  142.7929  169.9172 F       1  UNL1       -0.2372
     29 C         143.1560  141.0383  169.7338 C.3     1  UNL1        0.0510
@<TRIPOS>BOND
     1     7     8    1
     2     8     9   ar
     3     9    10   ar
     4    10    11   ar
     5    11     1    1
     6     1     2   ar
     7     2    14    1
     8    14    15   ar
     9    15    16   ar
    10    16    17   ar
    11    17    18   ar
    12    18    19   ar
    13    19    20    1
    14     2     3   ar
    15     3     4   ar
    16     4    21    1
    17    21    22    1
    18    24    22    1
    19    24    25    1
    20    25    26    1
    21    26    27    1
    22    27    28    1
    23    27    29    1
    24     4     5   ar
    25     5     6    1
    26    11    12   ar
    27    12    13   ar
    28    13     8   ar
    29     5     1   ar
    30    19    14   ar
    31    29    24    1
    32    22    23    1
@<TRIPOS>MOLECULE
*****
 29 32 0 0 0
SMALL
GASTEIGER

@<TRIPOS>ATOM
      1 N         140.8407  140.1299  165.3315 N.ar    1  UNL1       -0.2915
      2 C         141.6447  140.1406  164.0653 C.ar    1  UNL1        0.1658
      3 N         140.8435  139.4503  163.0015 N.ar    1  UNL1       -0.2282
      4 C         139.5442  139.0131  163.6103 C.ar    1  UNL1        0.0885
      5 C         139.5425  139.4331  165.0503 C.ar    1  UNL1        0.0580
      6 C         138.4366  139.1976  166.0361 C.3     1  UNL1        0.0517
      7 C         142.5220  142.4646  170.5967 C.3     1  UNL1        0.0521
      8 C         142.1017  141.8810  169.2804 C.ar    1  UNL1        0.0595
      9 C         142.5182  140.4883  168.9103 C.ar    1  UNL1        0.0162
     10 C         142.0978  139.9046  167.5940 C.ar    1  UNL1        0.0203
     11 C         141.2610  140.7136  166.6478 C.ar    1  UNL1        0.0842
     12 C         140.8445  142.1062  167.0180 C.ar    1  UNL1        0.1159
     13 N         141.2649  142.6899  168.3343 N.ar    1  UNL1       -0.2466
     14 C         143.0104  140.7368  163.8931 C.ar    1  UNL1        0.1261
     15 N         143.1655  142.0821  163.2480 N.ar    1  UNL1       -0.2399
     16 C         144.5311  142.6783  163.0757 C.ar    1  UNL1        0.0990
     17 C         145.7416  141.9292  163.5485 C.ar    1  UNL1        0.0215
     18 C         145.5865  140.5839  164.1935 C.ar    1  UNL1        0.0146
     19 C         144.2208  139.9877  164.3658 C.ar    1  UNL1        0.0783
     20 CL        144.0658  138.6424  165.0109 Cl      1  UNL1       -0.0806
     21 C         138.4404  138.2839  162.9033 C.3     1  UNL1        0.1163
     22 N         137.5384  139.0220  161.9589 N.3     1  UNL1       -0.2934
     23 H         136.5880  138.9108  162.3121 H       1  UNL1        0.1236
     24 C         137.7425  140.4885  161.7191 C.3     1  UNL1        0.0571
     25 C         138.2940  141.1093  160.4699 C.3     1  UNL1        0.0186
     26 C         138.3232  142.5963  160.6651 C.3     1  UNL1        0.0367
     27 C         137.7896  142.8945  162.0350 C.3     1  UNL1        0.1624
     28 F         137.6410  144.2562  162.6461 F       1  UNL1       -0.2372
     29 C         137.4307  141.5918  162.6863 C.3     1  UNL1        0.0510
@<TRIPOS>BOND
     1     7     8    1
     2     8     9   ar
     3     9    10   ar
     4    10    11   ar
     5    11     1    1
     6     1     2   ar
     7     2    14    1
     8    14    15   ar
     9    15    16   ar
    10    16    17   ar
    11    17    18   ar
    12    18    19   ar
    13    19    20    1
    14     2     3   ar
    15     3     4   ar
    16     4    21    1
    17    21    22    1
    18    24    22    1
    19    24    25    1
    20    25    26    1
    21    26    27    1
    22    27    28    1
    23    27    29    1
    24     4     5   ar
    25     5     6    1
    26    11    12   ar
    27    12    13   ar
    28    13     8   ar
    29     5     1   ar
    30    19    14   ar
    31    29    24    1
    32    22    23    1
@<TRIPOS>MOLECULE
*****
 29 32 0 0 0
SMALL
GASTEIGER

@<TRIPOS>ATOM
      1 N         140.5005  141.1781  165.3705 N.ar    1  UNL1       -0.2915
      2 C         140.8429  141.7512  164.0273 C.ar    1  UNL1        0.1658
      3 N         140.0591  141.0027  162.9903 N.ar    1  UNL1       -0.2282
      4 C         139.2322  139.9669  163.6927 C.ar    1  UNL1        0.0885
      5 C         139.5050  140.0753  165.1637 C.ar    1  UNL1        0.0580
      6 C         138.8902  139.2293  166.2391 C.3     1  UNL1        0.0517
      7 C         142.7226  142.9802  170.6444 C.3     1  UNL1        0.0521
      8 C         142.1671  142.5297  169.3259 C.ar    1  UNL1        0.0595
      9 C         140.8389  143.0447  168.8563 C.ar    1  UNL1        0.0162
     10 C         140.2833  142.5941  167.5379 C.ar    1  UNL1        0.0203
     11 C         141.0560  141.6286  166.6890 C.ar    1  UNL1        0.0842
     12 C         142.3842  141.1136  167.1586 C.ar    1  UNL1        0.1159
     13 N         142.9398  141.5641  168.4770 N.ar    1  UNL1       -0.2466
     14 C         141.8010  142.8756  163.7667 C.ar    1  UNL1        0.1261
     15 N         143.1824  142.5819  163.2609 N.ar    1  UNL1       -0.2399
     16 C         144.1405  143.7063  163.0003 C.ar    1  UNL1        0.0990
     17 C         143.7173  145.1243  163.2455 C.ar    1  UNL1        0.0215
     18 C         142.3360  145.4179  163.7513 C.ar    1  UNL1        0.0146
     19 C         141.3779  144.2936  164.0119 C.ar    1  UNL1        0.0783
     20 CL        139.9966  144.5874  164.5177 Cl      1  UNL1       -0.0806
     21 C         138.2967  138.9935  163.0389 C.3     1  UNL1        0.1163
     22 N         138.8432  137.8703  162.2084 N.3     1  UNL1       -0.2934
     23 H         138.2002  137.7419  161.4270 H       1  UNL1        0.1236
     24 C         140.2206  137.9715  161.6234 C.3     1  UNL1        0.0571
     25 C         140.5639  138.5004  160.2624 C.3     1  UNL1        0.0186
     26 C         142.0522  138.4174  160.0945 C.3     1  UNL1        0.0367
     27 C         142.6288  137.8371  161.3519 C.3     1  UNL1        0.1624
     28 F         144.0820  137.5780  161.6177 F       1  UNL1       -0.2372
     29 C         141.4968  137.5616  162.2968 C.3     1  UNL1        0.0510
@<TRIPOS>BOND
     1     7     8    1
     2     8     9   ar
     3     9    10   ar
     4    10    11   ar
     5    11     1    1
     6     1     2   ar
     7     2    14    1
     8    14    15   ar
     9    15    16   ar
    10    16    17   ar
    11    17    18   ar
    12    18    19   ar
    13    19    20    1
    14     2     3   ar
    15     3     4   ar
    16     4    21    1
    17    21    22    1
    18    24    22    1
    19    24    25    1
    20    25    26    1
    21    26    27    1
    22    27    28    1
    23    27    29    1
    24     4     5   ar
    25     5     6    1
    26    11    12   ar
    27    12    13   ar
    28    13     8   ar
    29     5     1   ar
    30    19    14   ar
    31    29    24    1
    32    22    23    1
@<TRIPOS>MOLECULE
*****
 29 32 0 0 0
SMALL
GASTEIGER

@<TRIPOS>ATOM
      1 N         141.2411  140.4861  160.8864 N.ar    1  UNL1       -0.2915
      2 C         141.5862  140.7182  162.3276 C.ar    1  UNL1        0.1658
      3 N         140.3317  140.5638  163.1353 N.ar    1  UNL1       -0.2282
      4 C         139.2113  140.2363  162.1934 C.ar    1  UNL1        0.0885
      5 C         139.7733  140.1883  160.8034 C.ar    1  UNL1        0.0580
      6 C         139.0028  139.8941  159.5506 C.3     1  UNL1        0.0517
      7 C         145.0610  140.7099  156.2649 C.3     1  UNL1        0.0521
      8 C         144.1060  140.6540  157.4203 C.ar    1  UNL1        0.0595
      9 C         143.2523  141.8435  157.7459 C.ar    1  UNL1        0.0162
     10 C         142.2973  141.7876  158.9013 C.ar    1  UNL1        0.0203
     11 C         142.1961  140.5421  159.7310 C.ar    1  UNL1        0.0842
     12 C         143.0498  139.3526  159.4054 C.ar    1  UNL1        0.1159
     13 N         144.0048  139.4085  158.2500 N.ar    1  UNL1       -0.2466
     14 C         142.9469  141.0470  162.8664 C.ar    1  UNL1        0.1261
     15 N         143.4353  142.4653  162.8556 N.ar    1  UNL1       -0.2399
     16 C         144.7960  142.7941  163.3945 C.ar    1  UNL1        0.0990
     17 C         145.6683  141.7047  163.9442 C.ar    1  UNL1        0.0215
     18 C         145.1800  140.2865  163.9550 C.ar    1  UNL1        0.0146
     19 C         143.8192  139.9577  163.4161 C.ar    1  UNL1        0.0783
     20 CL        143.3310  138.5394  163.4270 Cl      1  UNL1       -0.0806
     21 C         137.7801  139.9985  162.5744 C.3     1  UNL1        0.1163
     22 N         136.9009  141.1554  162.9466 N.3     1  UNL1       -0.2934
     23 H         136.3776  140.8728  163.7753 H       1  UNL1        0.1236
     24 C         137.5095  142.4915  163.2536 C.3     1  UNL1        0.0571
     25 C         137.9669  143.5044  162.2462 C.3     1  UNL1        0.0186
     26 C         138.5077  144.6883  162.9918 C.3     1  UNL1        0.0367
     27 C         138.3846  144.4070  164.4601 C.3     1  UNL1        0.1624
     28 F         138.8046  145.3227  165.5714 F       1  UNL1       -0.2372
     29 C         137.7677  143.0493  164.6218 C.3     1  UNL1        0.0510
@<TRIPOS>BOND
     1     7     8    1
     2     8     9   ar
     3     9    10   ar
     4    10    11   ar
     5    11     1    1
     6     1     2   ar
     7     2    14    1
     8    14    15   ar
     9    15    16   ar
    10    16    17   ar
    11    17    18   ar
    12    18    19   ar
    13    19    20    1
    14     2     3   ar
    15     3     4   ar
    16     4    21    1
    17    21    22    1
    18    24    22    1
    19    24    25    1
    20    25    26    1
    21    26    27    1
    22    27    28    1
    23    27    29    1
    24     4     5   ar
    25     5     6    1
    26    11    12   ar
    27    12    13   ar
    28    13     8   ar
    29     5     1   ar
    30    19    14   ar
    31    29    24    1
    32    22    23    1
@<TRIPOS>MOLECULE
*****
 29 32 0 0 0
SMALL
GASTEIGER

@<TRIPOS>ATOM
      1 N         141.8691  140.4743  165.5924 N.ar    1  UNL1       -0.2915
      2 C         141.2483  141.1479  164.4046 C.ar    1  UNL1        0.1658
      3 N         141.8001  140.5055  163.1665 N.ar    1  UNL1       -0.2282
      4 C         142.7619  139.4349  163.5891 C.ar    1  UNL1        0.0885
      5 C         142.8046  139.4157  165.0884 C.ar    1  UNL1        0.0580
      6 C         143.6367  138.4987  165.9350 C.3     1  UNL1        0.0517
      7 C         140.7985  141.7847  171.3489 C.3     1  UNL1        0.0521
      8 C         141.0662  141.4571  169.9098 C.ar    1  UNL1        0.0595
      9 C         140.2028  140.4608  169.1943 C.ar    1  UNL1        0.0162
     10 C         140.4705  140.1332  167.7551 C.ar    1  UNL1        0.0203
     11 C         141.6015  140.8019  167.0315 C.ar    1  UNL1        0.0842
     12 C         142.4648  141.7982  167.7470 C.ar    1  UNL1        0.1159
     13 N         142.1971  142.1258  169.1862 N.ar    1  UNL1       -0.2466
     14 C         140.2507  142.2673  164.4474 C.ar    1  UNL1        0.1261
     15 N         140.7181  143.6913  164.3829 N.ar    1  UNL1       -0.2399
     16 C         139.7206  144.8107  164.4256 C.ar    1  UNL1        0.0990
     17 C         138.2557  144.5063  164.5329 C.ar    1  UNL1        0.0215
     18 C         137.7884  143.0824  164.5975 C.ar    1  UNL1        0.0146
     19 C         138.7859  141.9630  164.5547 C.ar    1  UNL1        0.0783
     20 CL        138.3185  140.5391  164.6192 Cl      1  UNL1       -0.0806
     21 C         143.5439  138.5406  162.6733 C.3     1  UNL1        0.1163
     22 N         142.8266  137.6403  161.7115 N.3     1  UNL1       -0.2934
     23 H         142.8358  136.7058  162.1202 H       1  UNL1        0.1236
     24 C         141.4058  137.9316  161.3289 C.3     1  UNL1        0.0571
     25 C         140.9481  138.5454  160.0390 C.3     1  UNL1        0.0186
     26 C         139.4527  138.6534  160.0819 C.3     1  UNL1        0.0367
     27 C         138.9860  138.1064  161.3984 C.3     1  UNL1        0.1624
     28 F         137.5623  138.0205  161.8626 F       1  UNL1       -0.2372
     29 C         140.1931  137.6603  162.1690 C.3     1  UNL1        0.0510
@<TRIPOS>BOND
     1     7     8    1
     2     8     9   ar
     3     9    10   ar
     4    10    11   ar
     5    11     1    1
     6     1     2   ar
     7     2    14    1
     8    14    15   ar
     9    15    16   ar
    10    16    17   ar
    11    17    18   ar
    12    18    19   ar
    13    19    20    1
    14     2     3   ar
    15     3     4   ar
    16     4    21    1
    17    21    22    1
    18    24    22    1
    19    24    25    1
    20    25    26    1
    21    26    27    1
    22    27    28    1
    23    27    29    1
    24     4     5   ar
    25     5     6    1
    26    11    12   ar
    27    12    13   ar
    28    13     8   ar
    29     5     1   ar
    30    19    14   ar
    31    29    24    1
    32    22    23    1
@<TRIPOS>MOLECULE
*****
 29 32 0 0 0
SMALL
GASTEIGER

@<TRIPOS>ATOM
      1 N         140.6656  139.9066  165.4568 N.ar    1  UNL1       -0.2915
      2 C         141.5169  140.0742  164.2332 C.ar    1  UNL1        0.1658
      3 N         140.7936  139.4508  163.0763 N.ar    1  UNL1       -0.2282
      4 C         139.4952  138.8980  163.5850 C.ar    1  UNL1        0.0885
      5 C         139.4162  139.1796  165.0562 C.ar    1  UNL1        0.0580
      6 C         138.2860  138.8008  165.9668 C.3     1  UNL1        0.0517
      7 C         142.0203  141.8097  170.9833 C.3     1  UNL1        0.0521
      8 C         141.6817  141.3339  169.6017 C.ar    1  UNL1        0.0595
      9 C         142.3829  140.1389  169.0271 C.ar    1  UNL1        0.0162
     10 C         142.0442  139.6632  167.6454 C.ar    1  UNL1        0.0203
     11 C         141.0043  140.3823  166.8384 C.ar    1  UNL1        0.0842
     12 C         140.3030  141.5773  167.4131 C.ar    1  UNL1        0.1159
     13 N         140.6417  142.0531  168.7947 N.ar    1  UNL1       -0.2466
     14 C         142.8563  140.7470  164.1763 C.ar    1  UNL1        0.1261
     15 N         144.1055  139.9233  164.0706 N.ar    1  UNL1       -0.2399
     16 C         145.4450  140.5961  164.0137 C.ar    1  UNL1        0.0990
     17 C         145.5352  142.0926  164.0627 C.ar    1  UNL1        0.0215
     18 C         144.2861  142.9162  164.1684 C.ar    1  UNL1        0.0146
     19 C         142.9466  142.2434  164.2253 C.ar    1  UNL1        0.0783
     20 CL        141.6975  143.0672  164.3310 Cl      1  UNL1       -0.0806
     21 C         138.4581  138.1881  162.7662 C.3     1  UNL1        0.1163
     22 N         137.5156  138.9746  161.9041 N.3     1  UNL1       -0.2934
     23 H         136.5977  138.9200  162.3455 H       1  UNL1        0.1236
     24 C         137.7805  140.4259  161.6337 C.3     1  UNL1        0.0571
     25 C         137.5005  141.5630  162.5712 C.3     1  UNL1        0.0186
     26 C         137.9189  142.8349  161.8952 C.3     1  UNL1        0.0367
     27 C         138.4576  142.4841  160.5399 C.3     1  UNL1        0.1624
     28 F         138.9886  143.4520  159.5245 F       1  UNL1       -0.2372
     29 C         138.3721  140.9952  160.3783 C.3     1  UNL1        0.0510
@<TRIPOS>BOND
     1     7     8    1
     2     8     9   ar
     3     9    10   ar
     4    10    11   ar
     5    11     1    1
     6     1     2   ar
     7     2    14    1
     8    14    15   ar
     9    15    16   ar
    10    16    17   ar
    11    17    18   ar
    12    18    19   ar
    13    19    20    1
    14     2     3   ar
    15     3     4   ar
    16     4    21    1
    17    21    22    1
    18    24    22    1
    19    24    25    1
    20    25    26    1
    21    26    27    1
    22    27    28    1
    23    27    29    1
    24     4     5   ar
    25     5     6    1
    26    11    12   ar
    27    12    13   ar
    28    13     8   ar
    29     5     1   ar
    30    19    14   ar
    31    29    24    1
    32    22    23    1
@<TRIPOS>MOLECULE
*****
 29 32 0 0 0
SMALL
GASTEIGER

@<TRIPOS>ATOM
      1 N         141.6579  140.2812  165.5568 N.ar    1  UNL1       -0.2915
      2 C         140.9498  140.8970  164.3866 C.ar    1  UNL1        0.1658
      3 N         141.4356  140.2174  163.1407 N.ar    1  UNL1       -0.2282
      4 C         142.4440  139.1815  163.5409 C.ar    1  UNL1        0.0885
      5 C         142.5814  139.2210  165.0341 C.ar    1  UNL1        0.0580
      6 C         143.4838  138.3526  165.8597 C.3     1  UNL1        0.0517
      7 C         140.9251  141.7932  171.3167 C.3     1  UNL1        0.0521
      8 C         141.1083  141.4152  169.8767 C.ar    1  UNL1        0.0595
      9 C         142.2470  141.9919  169.0889 C.ar    1  UNL1        0.0162
     10 C         142.4302  141.6139  167.6490 C.ar    1  UNL1        0.0203
     11 C         141.4747  140.6592  166.9968 C.ar    1  UNL1        0.0842
     12 C         140.3360  140.0824  167.7845 C.ar    1  UNL1        0.1159
     13 N         140.1528  140.4604  169.2245 N.ar    1  UNL1       -0.2466
     14 C         139.9341  141.9989  164.4509 C.ar    1  UNL1        0.1261
     15 N         138.4713  141.6763  164.3712 N.ar    1  UNL1       -0.2399
     16 C         137.4557  142.7783  164.4355 C.ar    1  UNL1        0.0990
     17 C         137.9028  144.2028  164.5796 C.ar    1  UNL1        0.0215
     18 C         139.3655  144.5254  164.6593 C.ar    1  UNL1        0.0146
     19 C         140.3811  143.4234  164.5950 C.ar    1  UNL1        0.0783
     20 CL        141.8439  143.7462  164.6747 Cl      1  UNL1       -0.0806
     21 C         143.1849  138.2668  162.6112 C.3     1  UNL1        0.1163
     22 N         144.2787  138.8089  161.7395 N.3     1  UNL1       -0.2934
     23 H         144.2333  138.2977  160.8580 H       1  UNL1        0.1236
     24 C         144.3077  140.2680  161.3928 C.3     1  UNL1        0.0571
     25 C         143.8798  140.8731  160.0887 C.3     1  UNL1        0.0186
     26 C         144.0775  142.3573  160.1793 C.3     1  UNL1        0.0367
     27 C         144.6276  142.6694  161.5395 C.3     1  UNL1        0.1624
     28 F         144.9744  144.0333  162.0586 F       1  UNL1       -0.2372
     29 C         144.7699  141.3781  162.2895 C.3     1  UNL1        0.0510
@<TRIPOS>BOND
     1     7     8    1
     2     8     9   ar
     3     9    10   ar
     4    10    11   ar
     5    11     1    1
     6     1     2   ar
     7     2    14    1
     8    14    15   ar
     9    15    16   ar
    10    16    17   ar
    11    17    18   ar
    12    18    19   ar
    13    19    20    1
    14     2     3   ar
    15     3     4   ar
    16     4    21    1
    17    21    22    1
    18    24    22    1
    19    24    25    1
    20    25    26    1
    21    26    27    1
    22    27    28    1
    23    27    29    1
    24     4     5   ar
    25     5     6    1
    26    11    12   ar
    27    12    13   ar
    28    13     8   ar
    29     5     1   ar
    30    19    14   ar
    31    29    24    1
    32    22    23    1
