@<TRIPOS>MOLECULE
*****
 43 48 0 0 0
SMALL
GASTEIGER

@<TRIPOS>ATOM
      1 N         138.1201  139.3965  165.8644 N.pl3   1  UNL1       -0.2801
      2 H         137.1867  139.2240  166.1256 H       1  UNL1        0.1552
      3 C         138.1268  140.0096  163.3396 C.ar    1  UNL1        0.1477
      4 C         138.5701  139.1173  164.4610 C.ar    1  UNL1        0.0846
      5 C         139.4634  137.9458  164.1789 C.ar    1  UNL1        0.0174
      6 C         139.9134  137.6666  162.7754 C.ar    1  UNL1       -0.0031
      7 C         139.4700  138.5589  161.6541 C.ar    1  UNL1       -0.0218
      8 C         138.5768  139.7303  161.9363 C.ar    1  UNL1        0.0091
      9 C         138.0228  140.7375  160.9725 C.3     1  UNL1        0.0292
     10 C         138.2254  140.8219  159.4886 C.3     1  UNL1        0.0062
     11 C         139.0318  139.9200  158.6021 C.3     1  UNL1        0.0166
     12 C         139.8350  138.7109  158.9803 C.3     1  UNL1        0.0619
     13 C         140.0301  138.1052  160.3386 C.3     1  UNL1        0.0421
     14 N         140.5358  138.0157  157.8510 N.3     1  UNL1       -0.2713
     15 C         139.7517  137.5259  156.6697 C.3     1  UNL1        0.0896
     16 C         140.4525  136.8306  155.5403 C.3     1  UNL1        0.0897
     17 N         141.9375  136.6252  155.5921 N.3     1  UNL1       -0.2691
     18 C         142.6383  135.9300  154.4628 C.3     1  UNL1        0.0897
     19 C         142.7217  137.1151  156.7733 C.3     1  UNL1        0.0897
     20 C         142.0208  137.8103  157.9027 C.3     1  UNL1        0.0896
     21 C         137.8074  142.4391  164.2028 C.3     1  UNL1        0.2525
     22 O         137.2335  141.1811  163.6217 O.3     1  UNL1       -0.4705
     23 C         139.0924  139.9386  166.8698 C.ar    1  UNL1        0.2219
     24 N         138.8865  139.6721  168.3316 N.ar    1  UNL1       -0.2110
     25 C         139.8587  140.2141  169.3370 C.ar    1  UNL1        0.1160
     26 C         141.0369  141.0227  168.8807 C.ar    1  UNL1        0.1082
     27 CL        142.0092  141.5647  169.8861 Cl      1  UNL1       -0.0777
     28 C         141.2429  141.2892  167.4190 C.ar    1  UNL1        0.1435
     29 N         140.2706  140.7471  166.4135 N.ar    1  UNL1       -0.1979
     30 N         142.4210  142.0977  166.9626 N.pl3   1  UNL1       -0.3181
     31 H         142.6194  142.9625  167.3892 H       1  UNL1        0.1482
     32 C         143.2968  141.5886  165.8565 C.3     1  UNL1        0.0832
     33 C         144.2358  142.4118  165.0255 C.3     1  UNL1        0.0984
     34 C         144.9068  141.4989  164.0425 C.3     1  UNL1        0.0323
     35 C         144.9975  140.0771  163.5731 C.2     1  UNL1       -0.0304
     36 C         144.0585  139.2539  164.4041 C.2     1  UNL1       -0.0294
     37 C         143.3875  140.1668  165.3871 C.3     1  UNL1        0.0404
     38 C         143.9118  141.5544  165.1636 C.3     1  UNL1        0.0109
     39 C         144.4638  143.8888  165.1548 C.2     1  UNL1        0.2208
     40 N         143.7548  144.8403  164.2372 N.am    1  UNL1       -0.3288
     41 O         145.4009  144.4142  166.2017 O.2     1  UNL1       -0.2753
     42 H         143.1398  144.4954  163.5501 H       1  UNL1        0.1449
     43 H         143.9045  145.8097  164.3221 H       1  UNL1        0.1449
@<TRIPOS>BOND
     1    21    22    1
     2    22     3    1
     3     3     4   ar
     4     4     1    1
     5     1    23    1
     6    23    24   ar
     7    24    25   ar
     8    25    26   ar
     9    26    27    1
    10    26    28   ar
    11    28    30    1
    12    32    30    1
    13    32    33    1
    14    33    39    1
    15    39    40   am
    16    39    41    2
    17    33    34    1
    18    34    35    1
    19    35    36    2
    20    37    36    1
    21    37    38    1
    22    28    29   ar
    23     4     5   ar
    24     5     6   ar
    25     6     7   ar
    26     7     8   ar
    27     8     9    1
    28     9    10    1
    29    10    11    1
    30    11    12    1
    31    12    14    1
    32    14    15    1
    33    15    16    1
    34    16    17    1
    35    17    18    1
    36    17    19    1
    37    19    20    1
    38    12    13    1
    39     8     3   ar
    40    20    14    1
    41    29    23   ar
    42    13     7    1
    43    37    32    1
    44    38    34    1
    45     1     2    1
    46    30    31    1
    47    40    42    1
    48    40    43    1
@<TRIPOS>MOLECULE
*****
 43 48 0 0 0
SMALL
GASTEIGER

@<TRIPOS>ATOM
      1 N         143.1998  138.2818  165.5023 N.pl3   1  UNL1       -0.2801
      2 H         143.9169  137.6462  165.7280 H       1  UNL1        0.1552
      3 C         143.4602  138.9604  163.0079 C.ar    1  UNL1        0.1477
      4 C         142.6542  138.3321  164.1060 C.ar    1  UNL1        0.0846
      5 C         141.3025  137.7541  163.8076 C.ar    1  UNL1        0.0174
      6 C         140.7568  137.8044  162.4113 C.ar    1  UNL1       -0.0031
      7 C         141.5629  138.4328  161.3133 C.ar    1  UNL1       -0.0218
      8 C         142.9144  139.0107  161.6116 C.ar    1  UNL1        0.0091
      9 C         143.8748  139.6774  160.6717 C.3     1  UNL1        0.0292
     10 C         143.7205  139.9308  159.2012 C.3     1  UNL1        0.0062
     11 C         142.5680  139.5800  158.3077 C.3     1  UNL1        0.0166
     12 C         141.2849  138.8893  158.6637 C.3     1  UNL1        0.0619
     13 C         140.8376  138.3787  160.0013 C.3     1  UNL1        0.0421
     14 N         140.3219  138.6817  157.5326 N.3     1  UNL1       -0.2713
     15 C         140.2349  137.3450  156.8574 C.3     1  UNL1        0.0896
     16 C         139.2718  137.1374  155.7263 C.3     1  UNL1        0.0897
     17 N         138.3958  138.2664  155.2703 N.3     1  UNL1       -0.2691
     18 C         137.4328  138.0588  154.1392 C.3     1  UNL1        0.0897
     19 C         138.4828  139.6031  155.9455 C.3     1  UNL1        0.0897
     20 C         139.4459  139.8107  157.0767 C.3     1  UNL1        0.0896
     21 C         144.9244  140.8765  163.9745 C.3     1  UNL1        0.2525
     22 O         144.8118  139.5384  163.3062 O.3     1  UNL1       -0.4705
     23 C         142.6526  139.1999  166.5548 C.ar    1  UNL1        0.2219
     24 N         143.0543  139.0207  167.9889 N.ar    1  UNL1       -0.2110
     25 C         142.5072  139.9387  169.0414 C.ar    1  UNL1        0.1160
     26 C         141.5583  141.0361  168.6598 C.ar    1  UNL1        0.1082
     27 CL        141.0111  141.9541  169.7123 Cl      1  UNL1       -0.0777
     28 C         141.1565  141.2153  167.2257 C.ar    1  UNL1        0.1435
     29 N         141.7037  140.2972  166.1732 N.ar    1  UNL1       -0.1979
     30 N         140.2077  142.3125  166.8441 N.pl3   1  UNL1       -0.3181
     31 H         140.1754  143.1417  167.3738 H       1  UNL1        0.1482
     32 C         139.3081  142.1465  165.6554 C.3     1  UNL1        0.0832
     33 C         138.7606  143.2524  164.8027 C.3     1  UNL1        0.0984
     34 C         137.9121  142.6348  163.7309 C.3     1  UNL1        0.0323
     35 C         137.4020  141.3336  163.1863 C.2     1  UNL1       -0.0304
     36 C         137.9495  140.2276  164.0390 C.2     1  UNL1       -0.0294
     37 C         138.7979  140.8453  165.1107 C.3     1  UNL1        0.0404
     38 C         138.7748  142.3330  164.9203 C.3     1  UNL1        0.0109
     39 C         139.0166  144.7187  164.9889 C.2     1  UNL1        0.2208
     40 N         139.9870  145.4302  164.0934 N.am    1  UNL1       -0.3288
     41 O         138.3023  145.4733  166.0707 O.2     1  UNL1       -0.2753
     42 H         140.4559  144.9350  163.3834 H       1  UNL1        0.1449
     43 H         140.1551  146.3926  164.2156 H       1  UNL1        0.1449
@<TRIPOS>BOND
     1    21    22    1
     2    22     3    1
     3     3     4   ar
     4     4     1    1
     5     1    23    1
     6    23    24   ar
     7    24    25   ar
     8    25    26   ar
     9    26    27    1
    10    26    28   ar
    11    28    30    1
    12    32    30    1
    13    32    33    1
    14    33    39    1
    15    39    40   am
    16    39    41    2
    17    33    34    1
    18    34    35    1
    19    35    36    2
    20    37    36    1
    21    37    38    1
    22    28    29   ar
    23     4     5   ar
    24     5     6   ar
    25     6     7   ar
    26     7     8   ar
    27     8     9    1
    28     9    10    1
    29    10    11    1
    30    11    12    1
    31    12    14    1
    32    14    15    1
    33    15    16    1
    34    16    17    1
    35    17    18    1
    36    17    19    1
    37    19    20    1
    38    12    13    1
    39     8     3   ar
    40    20    14    1
    41    29    23   ar
    42    13     7    1
    43    37    32    1
    44    38    34    1
    45     1     2    1
    46    30    31    1
    47    40    42    1
    48    40    43    1
@<TRIPOS>MOLECULE
*****
 43 48 0 0 0
SMALL
GASTEIGER

@<TRIPOS>ATOM
      1 N         139.6613  142.9683  158.7709 N.pl3   1  UNL1       -0.2801
      2 H         139.6368  143.7020  158.1149 H       1  UNL1        0.1552
      3 C         139.4464  140.8509  157.2808 C.ar    1  UNL1        0.1477
      4 C         140.1550  141.6124  158.3616 C.ar    1  UNL1        0.0846
      5 C         141.3573  141.0178  159.0331 C.ar    1  UNL1        0.0174
      6 C         141.8510  139.6617  158.6238 C.ar    1  UNL1       -0.0031
      7 C         141.1424  138.9004  157.5429 C.ar    1  UNL1       -0.0218
      8 C         139.9401  139.4950  156.8715 C.ar    1  UNL1        0.0091
      9 C         139.0934  138.9099  155.7801 C.3     1  UNL1        0.0292
     10 C         139.2400  137.5857  155.0908 C.3     1  UNL1        0.0062
     11 C         140.2694  136.5197  155.3225 C.3     1  UNL1        0.0166
     12 C         141.4065  136.5144  156.3008 C.3     1  UNL1        0.0619
     13 C         141.7950  137.5739  157.2890 C.3     1  UNL1        0.0421
     14 N         142.2691  135.2873  156.2894 N.3     1  UNL1       -0.2713
     15 C         143.1798  134.9999  157.4462 C.3     1  UNL1        0.0896
     16 C         144.0425  133.7728  157.4347 C.3     1  UNL1        0.0897
     17 N         143.9945  132.8331  156.2665 N.3     1  UNL1       -0.2691
     18 C         144.8571  131.6061  156.2551 C.3     1  UNL1        0.0897
     19 C         143.0838  133.1205  155.1097 C.3     1  UNL1        0.0897
     20 C         142.2211  134.3476  155.1212 C.3     1  UNL1        0.0896
     21 C         136.8801  141.2481  157.2013 C.3     1  UNL1        0.2525
     22 O         138.2441  141.4455  156.6093 O.3     1  UNL1       -0.4705
     23 C         139.2051  143.2065  160.1799 C.ar    1  UNL1        0.2219
     24 N         139.5521  144.4903  160.8739 N.ar    1  UNL1       -0.2110
     25 C         139.0959  144.7284  162.2827 C.ar    1  UNL1        0.1160
     26 C         138.2926  143.6827  162.9978 C.ar    1  UNL1        0.1082
     27 CL        137.8363  143.9209  164.4068 Cl      1  UNL1       -0.0777
     28 C         137.9455  142.3989  162.3040 C.ar    1  UNL1        0.1435
     29 N         138.4018  142.1608  160.8950 N.ar    1  UNL1       -0.1979
     30 N         137.1423  141.3532  163.0190 N.pl3   1  UNL1       -0.3181
     31 H         136.1727  141.4742  163.1393 H       1  UNL1        0.1482
     32 C         137.8162  140.1232  163.5506 C.3     1  UNL1        0.0832
     33 C         138.2616  138.9419  162.7406 C.3     1  UNL1        0.0984
     34 C         138.8838  137.9471  163.6750 C.3     1  UNL1        0.0323
     35 C         139.2307  137.6823  165.1102 C.2     1  UNL1       -0.0304
     36 C         138.7853  138.8636  165.9202 C.2     1  UNL1       -0.0294
     37 C         138.1631  139.8584  164.9858 C.3     1  UNL1        0.0404
     38 C         138.2240  139.2919  163.5981 C.3     1  UNL1        0.0109
     39 C         138.1112  138.7832  161.2565 C.2     1  UNL1        0.2208
     40 N         136.8496  139.2293  160.5786 N.am    1  UNL1       -0.3288
     41 O         139.2224  138.1786  160.4505 O.2     1  UNL1       -0.2753
     42 H         136.1204  139.6261  161.1077 H       1  UNL1        0.1449
     43 H         136.7509  139.1251  159.6046 H       1  UNL1        0.1449
@<TRIPOS>BOND
     1    21    22    1
     2    22     3    1
     3     3     4   ar
     4     4     1    1
     5     1    23    1
     6    23    24   ar
     7    24    25   ar
     8    25    26   ar
     9    26    27    1
    10    26    28   ar
    11    28    30    1
    12    32    30    1
    13    32    33    1
    14    33    39    1
    15    39    40   am
    16    39    41    2
    17    33    34    1
    18    34    35    1
    19    35    36    2
    20    37    36    1
    21    37    38    1
    22    28    29   ar
    23     4     5   ar
    24     5     6   ar
    25     6     7   ar
    26     7     8   ar
    27     8     9    1
    28     9    10    1
    29    10    11    1
    30    11    12    1
    31    12    14    1
    32    14    15    1
    33    15    16    1
    34    16    17    1
    35    17    18    1
    36    17    19    1
    37    19    20    1
    38    12    13    1
    39     8     3   ar
    40    20    14    1
    41    29    23   ar
    42    13     7    1
    43    37    32    1
    44    38    34    1
    45     1     2    1
    46    30    31    1
    47    40    42    1
    48    40    43    1
@<TRIPOS>MOLECULE
*****
 43 48 0 0 0
SMALL
GASTEIGER

@<TRIPOS>ATOM
      1 N         143.8807  138.7759  165.7190 N.pl3   1  UNL1       -0.2801
      2 H         144.4698  138.0403  166.0040 H       1  UNL1        0.1552
      3 C         143.0093  138.5586  163.2811 C.ar    1  UNL1        0.1477
      4 C         143.8898  139.2336  164.2906 C.ar    1  UNL1        0.0846
      5 C         144.7795  140.3662  163.8717 C.ar    1  UNL1        0.0174
      6 C         144.7886  140.8240  162.4432 C.ar    1  UNL1       -0.0031
      7 C         143.9080  140.1489  161.4337 C.ar    1  UNL1       -0.0218
      8 C         143.0185  139.0163  161.8527 C.ar    1  UNL1        0.0091
      9 C         142.0704  138.2120  161.0134 C.3     1  UNL1        0.0292
     10 C         141.7779  138.3418  159.5479 C.3     1  UNL1        0.0062
     11 C         142.3611  139.3078  158.5598 C.3     1  UNL1        0.0166
     12 C         143.3810  140.3828  158.7930 C.3     1  UNL1        0.0619
     13 C         144.0694  140.7571  160.0720 C.3     1  UNL1        0.0421
     14 N         143.7629  141.1901  157.5879 N.3     1  UNL1       -0.2713
     15 C         142.7642  142.1151  156.9576 C.3     1  UNL1        0.0896
     16 C         143.1462  142.9225  155.7524 C.3     1  UNL1        0.0897
     17 N         144.5267  142.8049  155.1776 N.3     1  UNL1       -0.2691
     18 C         144.9085  143.6122  153.9725 C.3     1  UNL1        0.0897
     19 C         145.5253  141.8799  155.8079 C.3     1  UNL1        0.0897
     20 C         145.1433  141.0725  157.0131 C.3     1  UNL1        0.0896
     21 C         140.7784  137.7111  164.3081 C.3     1  UNL1        0.2525
     22 O         142.1196  137.4259  163.7000 O.3     1  UNL1       -0.4705
     23 C         142.9741  139.4390  166.7132 C.ar    1  UNL1        0.2219
     24 N         142.9619  138.9786  168.1408 N.ar    1  UNL1       -0.2110
     25 C         142.0553  139.6417  169.1350 C.ar    1  UNL1        0.1160
     26 C         141.1609  140.7652  168.7016 C.ar    1  UNL1        0.1082
     27 CL        140.2543  141.4283  169.6958 Cl      1  UNL1       -0.0777
     28 C         141.1731  141.2256  167.2740 C.ar    1  UNL1        0.1435
     29 N         142.0797  140.5625  166.2798 N.ar    1  UNL1       -0.1979
     30 N         140.2788  142.3491  166.8406 N.pl3   1  UNL1       -0.3181
     31 H         140.3091  143.2126  167.3126 H       1  UNL1        0.1482
     32 C         139.3382  142.1571  165.6881 C.3     1  UNL1        0.0832
     33 C         138.7254  143.2468  164.8592 C.3     1  UNL1        0.0984
     34 C         137.8537  142.6049  163.8209 C.3     1  UNL1        0.0323
     35 C         137.3608  141.2895  163.2949 C.2     1  UNL1       -0.0304
     36 C         137.9736  140.1998  164.1237 C.2     1  UNL1       -0.0294
     37 C         138.8453  140.8417  165.1621 C.3     1  UNL1        0.0404
     38 C         138.7711  142.3282  164.9749 C.3     1  UNL1        0.0109
     39 C         138.9456  144.7199  165.0374 C.2     1  UNL1        0.2208
     40 N         139.8671  145.4578  164.1120 N.am    1  UNL1       -0.3288
     41 O         138.2441  145.4550  166.1408 O.2     1  UNL1       -0.2753
     42 H         140.3275  144.9753  163.3878 H       1  UNL1        0.1449
     43 H         140.0116  146.4246  164.2289 H       1  UNL1        0.1449
@<TRIPOS>BOND
     1    21    22    1
     2    22     3    1
     3     3     4   ar
     4     4     1    1
     5     1    23    1
     6    23    24   ar
     7    24    25   ar
     8    25    26   ar
     9    26    27    1
    10    26    28   ar
    11    28    30    1
    12    32    30    1
    13    32    33    1
    14    33    39    1
    15    39    40   am
    16    39    41    2
    17    33    34    1
    18    34    35    1
    19    35    36    2
    20    37    36    1
    21    37    38    1
    22    28    29   ar
    23     4     5   ar
    24     5     6   ar
    25     6     7   ar
    26     7     8   ar
    27     8     9    1
    28     9    10    1
    29    10    11    1
    30    11    12    1
    31    12    14    1
    32    14    15    1
    33    15    16    1
    34    16    17    1
    35    17    18    1
    36    17    19    1
    37    19    20    1
    38    12    13    1
    39     8     3   ar
    40    20    14    1
    41    29    23   ar
    42    13     7    1
    43    37    32    1
    44    38    34    1
    45     1     2    1
    46    30    31    1
    47    40    42    1
    48    40    43    1
@<TRIPOS>MOLECULE
*****
 43 48 0 0 0
SMALL
GASTEIGER

@<TRIPOS>ATOM
      1 N         138.1246  139.5281  166.0809 N.pl3   1  UNL1       -0.2801
      2 H         137.2212  139.4745  166.4686 H       1  UNL1        0.1552
      3 C         138.1600  140.6559  163.7405 C.ar    1  UNL1        0.1477
      4 C         138.3101  139.4325  164.5955 C.ar    1  UNL1        0.0846
      5 C         138.6458  138.1135  163.9650 C.ar    1  UNL1        0.0174
      6 C         138.8314  138.0178  162.4796 C.ar    1  UNL1       -0.0031
      7 C         138.6813  139.2412  161.6247 C.ar    1  UNL1       -0.0218
      8 C         138.3456  140.5601  162.2552 C.ar    1  UNL1        0.0091
      9 C         138.1522  141.8916  161.5919 C.3     1  UNL1        0.0292
     10 C         138.2469  142.2328  160.1342 C.3     1  UNL1        0.0062
     11 C         138.5582  141.3269  158.9800 C.3     1  UNL1        0.0166
     12 C         138.8518  139.8560  158.9982 C.3     1  UNL1        0.0619
     13 C         138.9066  138.9278  160.1752 C.3     1  UNL1        0.0421
     14 N         139.1270  139.2308  157.6628 N.3     1  UNL1       -0.2713
     15 C         139.8521  137.9200  157.5836 C.3     1  UNL1        0.0896
     16 C         140.1273  137.2947  156.2481 C.3     1  UNL1        0.0897
     17 N         139.6775  137.9801  154.9920 N.3     1  UNL1       -0.2691
     18 C         139.9527  137.3548  153.6567 C.3     1  UNL1        0.0897
     19 C         138.9524  139.2909  155.0712 C.3     1  UNL1        0.0897
     20 C         138.6772  139.9162  156.4067 C.3     1  UNL1        0.0896
     21 C         138.9117  142.8218  164.9626 C.3     1  UNL1        0.2525
     22 O         137.8242  141.9749  164.3710 O.3     1  UNL1       -0.4705
     23 C         139.3154  139.7055  166.9755 C.ar    1  UNL1        0.2219
     24 N         139.1288  139.8146  168.4599 N.ar    1  UNL1       -0.2110
     25 C         140.3196  139.9920  169.3546 C.ar    1  UNL1        0.1160
     26 C         141.6972  140.0604  168.7648 C.ar    1  UNL1        0.1082
     27 CL        142.8880  140.2378  169.6595 Cl      1  UNL1       -0.0777
     28 C         141.8839  139.9513  167.2805 C.ar    1  UNL1        0.1435
     29 N         140.6930  139.7739  166.3858 N.ar    1  UNL1       -0.1979
     30 N         143.2613  140.0197  166.6907 N.pl3   1  UNL1       -0.3181
     31 H         143.9705  139.4250  167.0263 H       1  UNL1        0.1482
     32 C         143.5583  140.9941  165.5897 C.3     1  UNL1        0.0832
     33 C         143.7132  140.6609  164.1355 C.3     1  UNL1        0.0984
     34 C         144.0032  141.9337  163.3966 C.3     1  UNL1        0.0323
     35 C         144.1975  143.4124  163.5566 C.2     1  UNL1       -0.0304
     36 C         144.0426  143.7456  165.0109 C.2     1  UNL1       -0.0294
     37 C         143.7526  142.4728  165.7497 C.3     1  UNL1        0.0404
     38 C         143.7283  141.3530  164.7520 C.3     1  UNL1        0.0109
     39 C         143.5982  139.2947  163.5268 C.2     1  UNL1        0.2208
     40 N         144.5941  138.8453  162.4990 N.am    1  UNL1       -0.3288
     41 O         142.4874  138.3780  163.9459 O.2     1  UNL1       -0.2753
     42 H         145.3232  139.4470  162.2240 H       1  UNL1        0.1449
     43 H         144.5186  137.9487  162.0995 H       1  UNL1        0.1449
@<TRIPOS>BOND
     1    21    22    1
     2    22     3    1
     3     3     4   ar
     4     4     1    1
     5     1    23    1
     6    23    24   ar
     7    24    25   ar
     8    25    26   ar
     9    26    27    1
    10    26    28   ar
    11    28    30    1
    12    32    30    1
    13    32    33    1
    14    33    39    1
    15    39    40   am
    16    39    41    2
    17    33    34    1
    18    34    35    1
    19    35    36    2
    20    37    36    1
    21    37    38    1
    22    28    29   ar
    23     4     5   ar
    24     5     6   ar
    25     6     7   ar
    26     7     8   ar
    27     8     9    1
    28     9    10    1
    29    10    11    1
    30    11    12    1
    31    12    14    1
    32    14    15    1
    33    15    16    1
    34    16    17    1
    35    17    18    1
    36    17    19    1
    37    19    20    1
    38    12    13    1
    39     8     3   ar
    40    20    14    1
    41    29    23   ar
    42    13     7    1
    43    37    32    1
    44    38    34    1
    45     1     2    1
    46    30    31    1
    47    40    42    1
    48    40    43    1
@<TRIPOS>MOLECULE
*****
 43 48 0 0 0
SMALL
GASTEIGER

@<TRIPOS>ATOM
      1 N         138.1552  139.7984  166.2038 N.pl3   1  UNL1       -0.2801
      2 H         137.3590  139.3251  166.5375 H       1  UNL1        0.1552
      3 C         138.6923  139.2192  163.7286 C.ar    1  UNL1        0.1477
      4 C         138.2363  140.2058  164.7625 C.ar    1  UNL1        0.0846
      5 C         137.8615  141.5999  164.3550 C.ar    1  UNL1        0.0174
      6 C         137.9426  142.0074  162.9137 C.ar    1  UNL1       -0.0031
      7 C         138.3985  141.0207  161.8799 C.ar    1  UNL1       -0.0218
      8 C         138.7734  139.6268  162.2874 C.ar    1  UNL1        0.0091
      9 C         139.2495  138.4961  161.4242 C.3     1  UNL1        0.0292
     10 C         139.4684  138.4804  159.9403 C.3     1  UNL1        0.0062
     11 C         139.2652  139.5913  158.9532 C.3     1  UNL1        0.0166
     12 C         138.7929  140.9924  159.2060 C.3     1  UNL1        0.0619
     13 C         138.4072  141.6286  160.5085 C.3     1  UNL1        0.0421
     14 N         138.6932  141.8738  157.9965 N.3     1  UNL1       -0.2713
     15 C         137.3830  142.0198  157.2808 C.3     1  UNL1        0.0896
     16 C         137.2833  142.9013  156.0712 C.3     1  UNL1        0.0897
     17 N         138.4937  143.6368  155.5773 N.3     1  UNL1       -0.2691
     18 C         138.3939  144.5183  154.3678 C.3     1  UNL1        0.0897
     19 C         139.8039  143.4909  156.2930 C.3     1  UNL1        0.0897
     20 C         139.9036  142.6094  157.5026 C.3     1  UNL1        0.0896
     21 C         140.4497  137.5377  164.6417 C.3     1  UNL1        0.2525
     22 O         139.0671  137.8251  164.1361 O.3     1  UNL1       -0.4705
     23 C         139.2872  140.1121  167.1367 C.ar    1  UNL1        0.2219
     24 N         139.2307  139.6563  168.5647 N.ar    1  UNL1       -0.2110
     25 C         140.3626  139.9699  169.4975 C.ar    1  UNL1        0.1160
     26 C         141.5512  140.7395  169.0024 C.ar    1  UNL1        0.1082
     27 CL        142.6832  141.0532  169.9352 Cl      1  UNL1       -0.0777
     28 C         141.6078  141.1953  167.5744 C.ar    1  UNL1        0.1435
     29 N         140.4758  140.8816  166.6416 N.ar    1  UNL1       -0.1979
     30 N         142.7963  141.9648  167.0793 N.pl3   1  UNL1       -0.3181
     31 H         143.1243  142.7432  167.5850 H       1  UNL1        0.1482
     32 C         143.4852  141.5484  165.8136 C.3     1  UNL1        0.0832
     33 C         144.2661  142.4447  164.8989 C.3     1  UNL1        0.0984
     34 C         144.7778  141.6128  163.7604 C.3     1  UNL1        0.0323
     35 C         144.8067  140.2269  163.1873 C.2     1  UNL1       -0.0304
     36 C         144.0258  139.3306  164.1020 C.2     1  UNL1       -0.0294
     37 C         143.5142  140.1625  165.2405 C.3     1  UNL1        0.0404
     38 C         143.9790  141.5730  165.0293 C.3     1  UNL1        0.0109
     39 C         144.4953  143.9149  165.0891 C.2     1  UNL1        0.2208
     40 N         143.8400  144.9013  164.1685 N.am    1  UNL1       -0.3288
     41 O         145.3796  144.3985  166.2000 O.2     1  UNL1       -0.2753
     42 H         143.2596  144.5839  163.4394 H       1  UNL1        0.1449
     43 H         143.9903  145.8663  164.2934 H       1  UNL1        0.1449
@<TRIPOS>BOND
     1    21    22    1
     2    22     3    1
     3     3     4   ar
     4     4     1    1
     5     1    23    1
     6    23    24   ar
     7    24    25   ar
     8    25    26   ar
     9    26    27    1
    10    26    28   ar
    11    28    30    1
    12    32    30    1
    13    32    33    1
    14    33    39    1
    15    39    40   am
    16    39    41    2
    17    33    34    1
    18    34    35    1
    19    35    36    2
    20    37    36    1
    21    37    38    1
    22    28    29   ar
    23     4     5   ar
    24     5     6   ar
    25     6     7   ar
    26     7     8   ar
    27     8     9    1
    28     9    10    1
    29    10    11    1
    30    11    12    1
    31    12    14    1
    32    14    15    1
    33    15    16    1
    34    16    17    1
    35    17    18    1
    36    17    19    1
    37    19    20    1
    38    12    13    1
    39     8     3   ar
    40    20    14    1
    41    29    23   ar
    42    13     7    1
    43    37    32    1
    44    38    34    1
    45     1     2    1
    46    30    31    1
    47    40    42    1
    48    40    43    1
@<TRIPOS>MOLECULE
*****
 43 48 0 0 0
SMALL
GASTEIGER

@<TRIPOS>ATOM
      1 N         139.6724  145.8379  160.1475 N.pl3   1  UNL1       -0.2801
      2 H         139.0136  146.5644  160.0621 H       1  UNL1        0.1552
      3 C         139.0561  143.8458  161.6973 C.ar    1  UNL1        0.1477
      4 C         139.8228  145.1113  161.4511 C.ar    1  UNL1        0.0846
      5 C         140.7401  145.6502  162.5086 C.ar    1  UNL1        0.0174
      6 C         140.8906  144.9236  163.8122 C.ar    1  UNL1       -0.0031
      7 C         140.1237  143.6581  164.0583 C.ar    1  UNL1       -0.0218
      8 C         139.2066  143.1193  163.0009 C.ar    1  UNL1        0.0091
      9 C         138.3564  141.8840  163.0411 C.3     1  UNL1        0.0292
     10 C         138.2136  140.8826  164.1488 C.3     1  UNL1        0.0062
     11 C         138.8856  140.8692  165.4897 C.3     1  UNL1        0.0166
     12 C         139.8665  141.8537  166.0543 C.3     1  UNL1        0.0619
     13 C         140.4175  143.0949  165.4172 C.3     1  UNL1        0.0421
     14 N         140.3617  141.5579  167.4388 N.3     1  UNL1       -0.2713
     15 C         139.8964  140.3243  168.1543 C.3     1  UNL1        0.0896
     16 C         140.3918  140.0286  169.5390 C.3     1  UNL1        0.0897
     17 N         141.3523  140.9663  170.2082 N.3     1  UNL1       -0.2691
     18 C         141.8476  140.6706  171.5928 C.3     1  UNL1        0.0897
     19 C         141.8176  142.2000  169.4928 C.3     1  UNL1        0.0897
     20 C         141.3223  142.4957  168.1081 C.3     1  UNL1        0.0896
     21 C         138.6807  142.4212  159.5573 C.3     1  UNL1        0.2525
     22 O         138.1388  143.3069  160.6398 O.3     1  UNL1       -0.4705
     23 C         140.5259  145.4576  158.9741 C.ar    1  UNL1        0.2219
     24 N         140.1521  145.9147  157.5952 N.ar    1  UNL1       -0.2110
     25 C         141.0055  145.5344  156.4218 C.ar    1  UNL1        0.1160
     26 C         142.2329  144.6969  156.6273 C.ar    1  UNL1        0.1082
     27 CL        143.0864  144.3165  155.4538 Cl      1  UNL1       -0.0777
     28 C         142.6068  144.2397  158.0061 C.ar    1  UNL1        0.1435
     29 N         141.7533  144.6200  159.1796 N.ar    1  UNL1       -0.1979
     30 N         143.8341  143.4022  158.2116 N.pl3   1  UNL1       -0.3181
     31 H         144.7163  143.7477  157.9439 H       1  UNL1        0.1482
     32 C         143.7174  142.0384  158.8250 C.3     1  UNL1        0.0832
     33 C         143.9936  141.6892  160.2574 C.3     1  UNL1        0.0984
     34 C         143.7509  140.2192  160.4313 C.3     1  UNL1        0.0323
     35 C         143.3375  138.9650  159.7199 C.2     1  UNL1       -0.0304
     36 C         143.0613  139.3142  158.2875 C.2     1  UNL1       -0.0294
     37 C         143.3040  140.7842  158.1136 C.3     1  UNL1        0.0404
     38 C         143.7302  141.3435  159.4386 C.3     1  UNL1        0.0109
     39 C         144.4351  142.6427  161.3280 C.2     1  UNL1        0.2208
     40 N         145.6214  142.3118  162.1843 N.am    1  UNL1       -0.3288
     41 O         143.6902  143.9269  161.5422 O.2     1  UNL1       -0.2753
     42 H         146.1103  141.4689  162.0436 H       1  UNL1        0.1449
     43 H         145.9111  142.9376  162.8869 H       1  UNL1        0.1449
@<TRIPOS>BOND
     1    21    22    1
     2    22     3    1
     3     3     4   ar
     4     4     1    1
     5     1    23    1
     6    23    24   ar
     7    24    25   ar
     8    25    26   ar
     9    26    27    1
    10    26    28   ar
    11    28    30    1
    12    32    30    1
    13    32    33    1
    14    33    39    1
    15    39    40   am
    16    39    41    2
    17    33    34    1
    18    34    35    1
    19    35    36    2
    20    37    36    1
    21    37    38    1
    22    28    29   ar
    23     4     5   ar
    24     5     6   ar
    25     6     7   ar
    26     7     8   ar
    27     8     9    1
    28     9    10    1
    29    10    11    1
    30    11    12    1
    31    12    14    1
    32    14    15    1
    33    15    16    1
    34    16    17    1
    35    17    18    1
    36    17    19    1
    37    19    20    1
    38    12    13    1
    39     8     3   ar
    40    20    14    1
    41    29    23   ar
    42    13     7    1
    43    37    32    1
    44    38    34    1
    45     1     2    1
    46    30    31    1
    47    40    42    1
    48    40    43    1
@<TRIPOS>MOLECULE
*****
 43 48 0 0 0
SMALL
GASTEIGER

@<TRIPOS>ATOM
      1 N         140.0187  138.0737  158.4079 N.pl3   1  UNL1       -0.2801
      2 H         139.2311  137.6117  158.0397 H       1  UNL1        0.1552
      3 C         138.8858  139.5108  160.2523 C.ar    1  UNL1        0.1477
      4 C         139.9919  138.5977  159.8131 C.ar    1  UNL1        0.0846
      5 C         141.0714  138.2086  160.7793 C.ar    1  UNL1        0.0174
      6 C         141.0447  138.7325  162.1846 C.ar    1  UNL1       -0.0031
      7 C         139.9385  139.6456  162.6237 C.ar    1  UNL1       -0.0218
      8 C         138.8592  140.0347  161.6576 C.ar    1  UNL1        0.0091
      9 C         137.6748  140.9260  161.8877 C.3     1  UNL1        0.0292
     10 C         137.2774  141.6483  163.1409 C.3     1  UNL1        0.0062
     11 C         137.9661  141.6576  164.4733 C.3     1  UNL1        0.0166
     12 C         139.2224  140.9471  164.8818 C.3     1  UNL1        0.0619
     13 C         140.1003  140.0516  164.0586 C.3     1  UNL1        0.0421
     14 N         139.6586  141.1601  166.3010 N.3     1  UNL1       -0.2713
     15 C         140.2541  142.4736  166.7135 C.3     1  UNL1        0.0896
     16 C         140.6903  142.6866  168.1329 C.3     1  UNL1        0.0897
     17 N         140.5309  141.5862  169.1397 N.3     1  UNL1       -0.2691
     18 C         140.9670  141.7993  170.5589 C.3     1  UNL1        0.0897
     19 C         139.9354  140.2727  168.7272 C.3     1  UNL1        0.0897
     20 C         139.4992  140.0597  167.3078 C.3     1  UNL1        0.0896
     21 C         138.0692  140.9553  158.2532 C.3     1  UNL1        0.2525
     22 O         137.8064  139.8999  159.2862 O.3     1  UNL1       -0.4705
     23 C         141.2454  138.2538  157.5636 C.ar    1  UNL1        0.2219
     24 N         141.6976  139.6322  157.1821 N.ar    1  UNL1       -0.2110
     25 C         142.9243  139.8123  156.3378 C.ar    1  UNL1        0.1160
     26 C         143.6987  138.6139  155.8750 C.ar    1  UNL1        0.1082
     27 CL        144.9254  138.7940  155.0307 Cl      1  UNL1       -0.0777
     28 C         143.2465  137.2355  156.2565 C.ar    1  UNL1        0.1435
     29 N         142.0198  137.0554  157.1008 N.ar    1  UNL1       -0.1979
     30 N         144.0209  136.0371  155.7937 N.pl3   1  UNL1       -0.3181
     31 H         144.9875  136.1119  155.6221 H       1  UNL1        0.1482
     32 C         143.3228  134.7249  155.5923 C.3     1  UNL1        0.0832
     33 C         143.3419  133.5616  156.5390 C.3     1  UNL1        0.0984
     34 C         142.5138  132.4633  155.9406 C.3     1  UNL1        0.0323
     35 C         141.6739  132.0840  154.7572 C.2     1  UNL1       -0.0304
     36 C         141.6547  133.2474  153.8105 C.2     1  UNL1       -0.0294
     37 C         142.4828  134.3457  154.4088 C.3     1  UNL1        0.0404
     38 C         143.0138  133.8610  155.7254 C.3     1  UNL1        0.0109
     39 C         144.0627  133.5062  157.8534 C.2     1  UNL1        0.2208
     40 N         143.5904  134.3451  159.0036 N.am    1  UNL1       -0.3288
     41 O         145.2558  132.6119  158.0174 O.2     1  UNL1       -0.2753
     42 H         142.8074  134.9320  158.8960 H       1  UNL1        0.1449
     43 H         144.0635  134.3087  159.8663 H       1  UNL1        0.1449
@<TRIPOS>BOND
     1    21    22    1
     2    22     3    1
     3     3     4   ar
     4     4     1    1
     5     1    23    1
     6    23    24   ar
     7    24    25   ar
     8    25    26   ar
     9    26    27    1
    10    26    28   ar
    11    28    30    1
    12    32    30    1
    13    32    33    1
    14    33    39    1
    15    39    40   am
    16    39    41    2
    17    33    34    1
    18    34    35    1
    19    35    36    2
    20    37    36    1
    21    37    38    1
    22    28    29   ar
    23     4     5   ar
    24     5     6   ar
    25     6     7   ar
    26     7     8   ar
    27     8     9    1
    28     9    10    1
    29    10    11    1
    30    11    12    1
    31    12    14    1
    32    14    15    1
    33    15    16    1
    34    16    17    1
    35    17    18    1
    36    17    19    1
    37    19    20    1
    38    12    13    1
    39     8     3   ar
    40    20    14    1
    41    29    23   ar
    42    13     7    1
    43    37    32    1
    44    38    34    1
    45     1     2    1
    46    30    31    1
    47    40    42    1
    48    40    43    1
@<TRIPOS>MOLECULE
*****
 43 48 0 0 0
SMALL
GASTEIGER

@<TRIPOS>ATOM
      1 N         142.7214  138.8302  166.5553 N.pl3   1  UNL1       -0.2801
      2 H         143.2396  138.1756  167.0771 H       1  UNL1        0.1552
      3 C         143.3691  139.4053  164.1058 C.ar    1  UNL1        0.1477
      4 C         142.5311  138.6323  165.0807 C.ar    1  UNL1        0.0846
      5 C         141.5029  137.6612  164.5809 C.ar    1  UNL1        0.0174
      6 C         141.3126  137.4632  163.1062 C.ar    1  UNL1       -0.0031
      7 C         142.1506  138.2363  162.1313 C.ar    1  UNL1       -0.0218
      8 C         143.1787  139.2072  162.6312 C.ar    1  UNL1        0.0091
      9 C         144.1122  140.0723  161.8372 C.3     1  UNL1        0.0292
     10 C         144.2479  140.1799  160.3471 C.3     1  UNL1        0.0062
     11 C         143.4838  139.4491  159.2833 C.3     1  UNL1        0.0166
     12 C         142.3951  138.4301  159.4465 C.3     1  UNL1        0.0619
     13 C         141.8018  137.8904  160.7140 C.3     1  UNL1        0.0421
     14 N         141.8244  137.8780  158.1741 N.3     1  UNL1       -0.2713
     15 C         142.6787  137.0383  157.2711 C.3     1  UNL1        0.0896
     16 C         142.1078  136.4861  155.9985 C.3     1  UNL1        0.0897
     17 N         140.6828  136.7736  155.6289 N.3     1  UNL1       -0.2691
     18 C         140.1120  136.2214  154.3564 C.3     1  UNL1        0.0897
     19 C         139.8285  137.6133  156.5319 C.3     1  UNL1        0.0897
     20 C         140.3993  138.1654  157.8044 C.3     1  UNL1        0.0896
     21 C         144.0651  141.8356  164.7047 C.3     1  UNL1        0.2525
     22 O         144.3973  140.3763  164.6056 O.3     1  UNL1       -0.4705
     23 C         142.1221  140.0256  167.2350 C.ar    1  UNL1        0.2219
     24 N         142.3720  140.2619  168.6951 N.ar    1  UNL1       -0.2110
     25 C         141.7727  141.4572  169.3748 C.ar    1  UNL1        0.1160
     26 C         140.9236  142.4163  168.5944 C.ar    1  UNL1        0.1082
     27 CL        140.3243  143.6117  169.2740 Cl      1  UNL1       -0.0777
     28 C         140.6737  142.1801  167.1343 C.ar    1  UNL1        0.1435
     29 N         141.2730  140.9848  166.4546 N.ar    1  UNL1       -0.1979
     30 N         139.8246  143.1392  166.3538 N.pl3   1  UNL1       -0.3181
     31 H         139.0576  143.5809  166.7850 H       1  UNL1        0.1482
     32 C         140.1439  143.4254  164.9165 C.3     1  UNL1        0.0832
     33 C         139.5289  142.7519  163.7257 C.3     1  UNL1        0.0984
     34 C         140.1393  143.3456  162.4908 C.3     1  UNL1        0.0323
     35 C         141.1298  144.3556  161.9919 C.2     1  UNL1       -0.0304
     36 C         141.7448  145.0291  163.1827 C.2     1  UNL1       -0.0294
     37 C         141.1345  144.4354  164.4176 C.3     1  UNL1        0.0404
     38 C         140.1422  143.3949  163.9899 C.3     1  UNL1        0.0109
     39 C         138.4865  141.6740  163.7631 C.2     1  UNL1        0.2208
     40 N         138.8134  140.3347  164.3543 N.am    1  UNL1       -0.3288
     41 O         137.1172  141.9353  163.2092 O.2     1  UNL1       -0.2753
     42 H         139.7121  140.1632  164.7178 H       1  UNL1        0.1449
     43 H         138.1292  139.6272  164.3789 H       1  UNL1        0.1449
@<TRIPOS>BOND
     1    21    22    1
     2    22     3    1
     3     3     4   ar
     4     4     1    1
     5     1    23    1
     6    23    24   ar
     7    24    25   ar
     8    25    26   ar
     9    26    27    1
    10    26    28   ar
    11    28    30    1
    12    32    30    1
    13    32    33    1
    14    33    39    1
    15    39    40   am
    16    39    41    2
    17    33    34    1
    18    34    35    1
    19    35    36    2
    20    37    36    1
    21    37    38    1
    22    28    29   ar
    23     4     5   ar
    24     5     6   ar
    25     6     7   ar
    26     7     8   ar
    27     8     9    1
    28     9    10    1
    29    10    11    1
    30    11    12    1
    31    12    14    1
    32    14    15    1
    33    15    16    1
    34    16    17    1
    35    17    18    1
    36    17    19    1
    37    19    20    1
    38    12    13    1
    39     8     3   ar
    40    20    14    1
    41    29    23   ar
    42    13     7    1
    43    37    32    1
    44    38    34    1
    45     1     2    1
    46    30    31    1
    47    40    42    1
    48    40    43    1
