@<TRIPOS>MOLECULE
*****
 36 39 0 0 0
SMALL
GASTEIGER

@<TRIPOS>ATOM
      1 C         139.6322  139.0804  160.3326 C.ar    1  UNL1        0.0597
      2 C         139.6960  138.2360  161.5707 C.ar    1  UNL1        0.0422
      3 C         139.0581  138.7170  162.8402 C.ar    1  UNL1        0.1485
      4 C         138.3564  140.0424  162.8717 C.ar    1  UNL1        0.0743
      5 C         138.2926  140.8868  161.6336 C.ar    1  UNL1        0.1417
      6 C         138.9305  140.4057  160.3641 C.ar    1  UNL1        0.0416
      7 N         141.7589  138.4333  158.9879 N.am    1  UNL1       -0.2644
      8 C         140.2700  138.5993  159.0630 C.2     1  UNL1        0.2508
      9 O         139.4190  138.2844  157.8687 O.2     1  UNL1       -0.2698
     10 H         142.3175  138.6400  159.7718 H       1  UNL1        0.1566
     11 N         143.2208  136.5038  155.9538 N.ar    1  UNL1       -0.2483
     12 C         143.5359  137.9207  155.5753 C.ar    1  UNL1        0.0980
     13 C         143.0266  138.8159  156.6659 C.ar    1  UNL1        0.0564
     14 C         142.3968  137.9523  157.7183 C.ar    1  UNL1        0.1557
     15 N         142.5168  136.5234  157.2782 N.ar    1  UNL1       -0.1540
     16 C         142.5738  134.7630  154.1369 C.3     1  UNL1        0.0284
     17 C         143.5516  135.2819  155.1492 C.3     1  UNL1        0.1276
     18 O         139.1219  137.8726  164.0784 O.3     1  UNL1       -0.4534
     19 C         139.1925  138.5241  165.4277 C.ar    1  UNL1        0.1453
     20 C         140.4526  139.2113  165.8637 C.ar    1  UNL1        0.0376
     21 C         140.5232  139.8628  167.2130 C.ar    1  UNL1        0.0076
     22 C         139.3337  139.8272  168.1262 C.ar    1  UNL1        0.0538
     23 C         138.0737  139.1401  167.6902 C.ar    1  UNL1        0.0076
     24 C         138.0031  138.4885  166.3409 C.ar    1  UNL1        0.0376
     25 C         139.4042  140.4787  169.4755 C.2     1  UNL1        0.2490
     26 O         139.0023  139.7121  170.7005 O.2     1  UNL1       -0.2699
     27 N         139.8768  141.8970  169.5997 N.am    1  UNL1       -0.2760
     28 C         140.3461  142.9468  168.6367 C.3     1  UNL1        0.0955
     29 C         140.5450  143.9026  169.7755 C.3     1  UNL1        0.0430
     30 C         140.0756  142.8528  170.7386 C.3     1  UNL1        0.0955
     31 O         137.5910  142.2122  161.6650 O.3     1  UNL1       -0.4765
     32 C         138.2668  143.4043  162.2748 C.3     1  UNL1        0.1951
     33 C         137.7074  144.0290  163.5185 C.3     1  UNL1        0.0500
     34 C         139.5022  143.9719  161.6409 C.3     1  UNL1        0.1807
     35 O         140.8554  143.6014  162.1716 O.3     1  UNL1       -0.3785
     36 H         140.9578  143.9529  163.0699 H       1  UNL1        0.2106
@<TRIPOS>BOND
     1    16    17    1
     2    17    11    1
     3    11    12   ar
     4    12    13   ar
     5    13    14   ar
     6    14     7    1
     7     7     8   am
     8     8     9    2
     9     8     1    1
    10     1     2   ar
    11     2     3   ar
    12     3    18    1
    13    18    19    1
    14    19    20   ar
    15    20    21   ar
    16    21    22   ar
    17    22    25    1
    18    25    26    2
    19    25    27   am
    20    27    28    1
    21    28    29    1
    22    29    30    1
    23    22    23   ar
    24    23    24   ar
    25     3     4   ar
    26     4     5   ar
    27     5    31    1
    28    31    32    1
    29    32    33    1
    30    32    34    1
    31    34    35    1
    32     5     6   ar
    33    14    15   ar
    34    15    11   ar
    35     6     1   ar
    36    24    19   ar
    37    30    27    1
    38     7    10    1
    39    35    36    1
@<TRIPOS>MOLECULE
*****
 36 39 0 0 0
SMALL
GASTEIGER

@<TRIPOS>ATOM
      1 C         143.5330  139.5271  160.9022 C.ar    1  UNL1        0.0597
      2 C         143.0929  138.6260  162.0177 C.ar    1  UNL1        0.0422
      3 C         143.2371  139.0714  163.4427 C.ar    1  UNL1        0.1485
      4 C         143.8215  140.4178  163.7523 C.ar    1  UNL1        0.0743
      5 C         144.2616  141.3188  162.6367 C.ar    1  UNL1        0.1417
      6 C         144.1174  140.8734  161.2117 C.ar    1  UNL1        0.0416
      7 N         142.4384  137.9744  159.1298 N.am    1  UNL1       -0.2644
      8 C         143.3888  139.0817  159.4770 C.2     1  UNL1        0.2508
      9 O         144.1950  139.7437  158.3992 O.2     1  UNL1       -0.2698
     10 H         141.9093  137.5400  159.8372 H       1  UNL1        0.1566
     11 N         141.5960  137.4087  155.3833 N.ar    1  UNL1       -0.2483
     12 C         142.5487  136.2788  155.6400 C.ar    1  UNL1        0.0980
     13 C         142.9802  136.3532  157.0748 C.ar    1  UNL1        0.0564
     14 C         142.2942  137.5291  157.7047 C.ar    1  UNL1        0.1557
     15 N         141.4387  138.1814  156.6594 N.ar    1  UNL1       -0.1540
     16 C         140.1067  138.9644  153.9301 C.3     1  UNL1        0.0284
     17 C         140.9194  137.7125  154.0796 C.3     1  UNL1        0.1276
     18 O         142.7969  138.1704  164.5583 O.3     1  UNL1       -0.4534
     19 C         142.1721  138.7534  165.7911 C.ar    1  UNL1        0.1453
     20 C         140.7233  139.1423  165.7854 C.ar    1  UNL1        0.0376
     21 C         140.0985  139.7253  167.0181 C.ar    1  UNL1        0.0076
     22 C         140.9223  139.9194  168.2566 C.ar    1  UNL1        0.0538
     23 C         142.3710  139.5305  168.2622 C.ar    1  UNL1        0.0076
     24 C         142.9959  138.9475  167.0295 C.ar    1  UNL1        0.0376
     25 C         140.2975  140.5024  169.4893 C.2     1  UNL1        0.2490
     26 O         139.6939  139.5988  170.5233 O.2     1  UNL1       -0.2699
     27 N         140.2762  141.9891  169.6880 N.am    1  UNL1       -0.2760
     28 C         140.7627  143.1712  168.9032 C.3     1  UNL1        0.0955
     29 C         140.2461  144.0915  169.9692 C.3     1  UNL1        0.0430
     30 C         139.7597  142.9093  170.7540 C.3     1  UNL1        0.0955
     31 O         144.8460  142.6652  162.9463 O.3     1  UNL1       -0.4765
     32 C         144.1398  143.5895  163.8933 C.3     1  UNL1        0.1951
     33 C         144.6071  143.7083  165.3137 C.3     1  UNL1        0.0500
     34 C         142.9664  144.3951  163.4199 C.3     1  UNL1        0.1807
     35 O         143.0498  145.1546  162.1291 O.3     1  UNL1       -0.3785
     36 H         143.7091  145.8613  162.2118 H       1  UNL1        0.2106
@<TRIPOS>BOND
     1    16    17    1
     2    17    11    1
     3    11    12   ar
     4    12    13   ar
     5    13    14   ar
     6    14     7    1
     7     7     8   am
     8     8     9    2
     9     8     1    1
    10     1     2   ar
    11     2     3   ar
    12     3    18    1
    13    18    19    1
    14    19    20   ar
    15    20    21   ar
    16    21    22   ar
    17    22    25    1
    18    25    26    2
    19    25    27   am
    20    27    28    1
    21    28    29    1
    22    29    30    1
    23    22    23   ar
    24    23    24   ar
    25     3     4   ar
    26     4     5   ar
    27     5    31    1
    28    31    32    1
    29    32    33    1
    30    32    34    1
    31    34    35    1
    32     5     6   ar
    33    14    15   ar
    34    15    11   ar
    35     6     1   ar
    36    24    19   ar
    37    30    27    1
    38     7    10    1
    39    35    36    1
@<TRIPOS>MOLECULE
*****
 36 39 0 0 0
SMALL
GASTEIGER

@<TRIPOS>ATOM
      1 C         141.7061  138.4412  158.6383 C.ar    1  UNL1        0.0597
      2 C         140.3659  138.3090  159.2989 C.ar    1  UNL1        0.0422
      3 C         140.0363  139.1443  160.5004 C.ar    1  UNL1        0.1485
      4 C         141.0470  140.1118  161.0413 C.ar    1  UNL1        0.0743
      5 C         142.3871  140.2440  160.3807 C.ar    1  UNL1        0.1417
      6 C         142.7167  139.4087  159.1792 C.ar    1  UNL1        0.0416
      7 N         140.9615  136.8050  156.7625 N.am    1  UNL1       -0.2644
      8 C         142.0357  137.6059  157.4367 C.2     1  UNL1        0.2508
      9 O         143.4395  137.5715  156.9095 O.2     1  UNL1       -0.2698
     10 H         140.0401  136.8276  157.1086 H       1  UNL1        0.1566
     11 N         141.9269  134.0947  154.1572 N.ar    1  UNL1       -0.2483
     12 C         141.6697  135.2741  153.2667 C.ar    1  UNL1        0.0980
     13 C         141.2767  136.4330  154.1344 C.ar    1  UNL1        0.0564
     14 C         141.2911  135.9697  155.5610 C.ar    1  UNL1        0.1557
     15 N         141.6929  134.5246  155.5751 N.ar    1  UNL1       -0.1540
     16 C         141.4215  131.8992  152.8632 C.3     1  UNL1        0.0284
     17 C         142.3447  132.7258  153.7086 C.3     1  UNL1        0.1276
     18 O         138.6961  139.0121  161.1610 O.3     1  UNL1       -0.4534
     19 C         138.5929  139.0261  162.6574 C.ar    1  UNL1        0.1453
     20 C         138.1039  140.2556  163.3640 C.ar    1  UNL1        0.0376
     21 C         138.0008  140.2696  164.8604 C.ar    1  UNL1        0.0076
     22 C         138.3866  139.0541  165.6502 C.ar    1  UNL1        0.0538
     23 C         138.8756  137.8246  164.9435 C.ar    1  UNL1        0.0076
     24 C         138.9788  137.8107  163.4472 C.ar    1  UNL1        0.0376
     25 C         138.2835  139.0680  167.1466 C.2     1  UNL1        0.2490
     26 O         137.2997  138.1720  167.8389 O.2     1  UNL1       -0.2699
     27 N         139.1641  139.9781  167.9506 N.am    1  UNL1       -0.2760
     28 C         140.2305  140.9816  167.6256 C.3     1  UNL1        0.0955
     29 C         140.4094  141.2650  169.0877 C.3     1  UNL1        0.0430
     30 C         139.3430  140.2614  169.4127 C.3     1  UNL1        0.0955
     31 O         143.3978  141.2115  160.9216 O.3     1  UNL1       -0.4765
     32 C         144.2013  140.8554  162.1371 C.3     1  UNL1        0.1951
     33 C         144.2694  139.4302  162.6001 C.3     1  UNL1        0.0500
     34 C         144.9368  141.9244  162.8897 C.3     1  UNL1        0.1807
     35 O         146.4168  141.8075  163.1043 O.3     1  UNL1       -0.3785
     36 H         146.6011  141.0482  163.6791 H       1  UNL1        0.2106
@<TRIPOS>BOND
     1    16    17    1
     2    17    11    1
     3    11    12   ar
     4    12    13   ar
     5    13    14   ar
     6    14     7    1
     7     7     8   am
     8     8     9    2
     9     8     1    1
    10     1     2   ar
    11     2     3   ar
    12     3    18    1
    13    18    19    1
    14    19    20   ar
    15    20    21   ar
    16    21    22   ar
    17    22    25    1
    18    25    26    2
    19    25    27   am
    20    27    28    1
    21    28    29    1
    22    29    30    1
    23    22    23   ar
    24    23    24   ar
    25     3     4   ar
    26     4     5   ar
    27     5    31    1
    28    31    32    1
    29    32    33    1
    30    32    34    1
    31    34    35    1
    32     5     6   ar
    33    14    15   ar
    34    15    11   ar
    35     6     1   ar
    36    24    19   ar
    37    30    27    1
    38     7    10    1
    39    35    36    1
@<TRIPOS>MOLECULE
*****
 36 39 0 0 0
SMALL
GASTEIGER

@<TRIPOS>ATOM
      1 C         138.9570  140.2226  160.1331 C.ar    1  UNL1        0.0597
      2 C         139.0230  139.2219  161.2486 C.ar    1  UNL1        0.0422
      3 C         138.6245  139.6208  162.6385 C.ar    1  UNL1        0.1485
      4 C         138.1600  141.0204  162.9130 C.ar    1  UNL1        0.0743
      5 C         138.0940  142.0211  161.7976 C.ar    1  UNL1        0.1417
      6 C         138.4925  141.6222  160.4076 C.ar    1  UNL1        0.0416
      7 N         139.2453  138.3908  158.3134 N.am    1  UNL1       -0.2644
      8 C         139.3555  139.8236  158.7431 C.2     1  UNL1        0.2508
      9 O         139.8641  140.8577  157.7828 O.2     1  UNL1       -0.2698
     10 H         138.9115  137.7121  158.9436 H       1  UNL1        0.1566
     11 N         139.6103  137.6512  154.5205 N.ar    1  UNL1       -0.2483
     12 C         140.9038  137.1047  155.0482 C.ar    1  UNL1        0.0980
     13 C         140.9245  137.3153  156.5333 C.ar    1  UNL1        0.0564
     14 C         139.6438  137.9919  156.9233 C.ar    1  UNL1        0.1557
     15 N         138.8317  138.1995  155.6794 N.ar    1  UNL1       -0.1540
     16 C         137.9705  136.8549  152.6694 C.3     1  UNL1        0.0284
     17 C         139.1725  137.6497  153.0860 C.3     1  UNL1        0.1276
     18 O         138.6905  138.6201  163.7541 O.3     1  UNL1       -0.4534
     19 C         139.0917  139.0579  165.1315 C.ar    1  UNL1        0.1453
     20 C         138.0788  139.0750  166.2378 C.ar    1  UNL1        0.0376
     21 C         138.4799  139.5128  167.6153 C.ar    1  UNL1        0.0076
     22 C         139.8940  139.9335  167.8865 C.ar    1  UNL1        0.0538
     23 C         140.9068  139.9164  166.7802 C.ar    1  UNL1        0.0076
     24 C         140.5057  139.4786  165.4027 C.ar    1  UNL1        0.0376
     25 C         140.2952  140.3713  169.2639 C.2     1  UNL1        0.2490
     26 O         140.5250  139.3501  170.3383 O.2     1  UNL1       -0.2699
     27 N         140.4665  141.8304  169.5670 N.am    1  UNL1       -0.2760
     28 C         140.3301  143.1003  168.7804 C.3     1  UNL1        0.0955
     29 C         140.7088  143.8938  169.9957 C.3     1  UNL1        0.0430
     30 C         140.8453  142.6239  170.7823 C.3     1  UNL1        0.0955
     31 O         137.6296  143.4207  162.0721 O.3     1  UNL1       -0.4765
     32 C         138.4796  144.3459  162.8915 C.3     1  UNL1        0.1951
     33 C         138.2698  144.4419  164.3737 C.3     1  UNL1        0.0500
     34 C         139.5394  145.1751  162.2288 C.3     1  UNL1        0.1807
     35 O         140.5491  145.9073  163.0621 O.3     1  UNL1       -0.3785
     36 H         140.1032  146.5965  163.5788 H       1  UNL1        0.2106
@<TRIPOS>BOND
     1    16    17    1
     2    17    11    1
     3    11    12   ar
     4    12    13   ar
     5    13    14   ar
     6    14     7    1
     7     7     8   am
     8     8     9    2
     9     8     1    1
    10     1     2   ar
    11     2     3   ar
    12     3    18    1
    13    18    19    1
    14    19    20   ar
    15    20    21   ar
    16    21    22   ar
    17    22    25    1
    18    25    26    2
    19    25    27   am
    20    27    28    1
    21    28    29    1
    22    29    30    1
    23    22    23   ar
    24    23    24   ar
    25     3     4   ar
    26     4     5   ar
    27     5    31    1
    28    31    32    1
    29    32    33    1
    30    32    34    1
    31    34    35    1
    32     5     6   ar
    33    14    15   ar
    34    15    11   ar
    35     6     1   ar
    36    24    19   ar
    37    30    27    1
    38     7    10    1
    39    35    36    1
@<TRIPOS>MOLECULE
*****
 36 39 0 0 0
SMALL
GASTEIGER

@<TRIPOS>ATOM
      1 C         144.2304  142.4064  159.4391 C.ar    1  UNL1        0.0597
      2 C         144.8569  142.5435  160.7951 C.ar    1  UNL1        0.0422
      3 C         144.0217  142.9634  161.9681 C.ar    1  UNL1        0.1485
      4 C         142.5600  143.2461  161.7852 C.ar    1  UNL1        0.0743
      5 C         141.9335  143.1090  160.4293 C.ar    1  UNL1        0.1417
      6 C         142.7687  142.6892  159.2562 C.ar    1  UNL1        0.0416
      7 N         146.0886  142.9257  157.6991 N.am    1  UNL1       -0.2644
      8 C         145.0656  141.9865  158.2660 C.2     1  UNL1        0.2508
      9 O         144.8777  140.6274  157.6598 O.2     1  UNL1       -0.2698
     10 H         146.2119  143.8177  158.0970 H       1  UNL1        0.1566
     11 N         148.8033  141.7822  155.1716 N.ar    1  UNL1       -0.2483
     12 C         147.6146  141.9371  154.2699 C.ar    1  UNL1        0.0980
     13 C         146.4529  142.3843  155.1070 C.ar    1  UNL1        0.0564
     14 C         146.9238  142.5058  156.5260 C.ar    1  UNL1        0.1557
     15 N         148.3763  142.1337  156.5659 N.ar    1  UNL1       -0.1540
     16 C         151.2698  142.3688  154.6039 C.3     1  UNL1        0.0284
     17 C         150.1776  141.3515  154.7526 C.3     1  UNL1        0.1276
     18 O         144.6482  143.1005  163.3242 O.3     1  UNL1       -0.4534
     19 C         144.0999  142.3254  164.4855 C.ar    1  UNL1        0.1453
     20 C         143.8591  140.8505  164.3562 C.ar    1  UNL1        0.0376
     21 C         143.3108  140.0755  165.5175 C.ar    1  UNL1        0.0076
     22 C         143.0033  140.7753  166.8081 C.ar    1  UNL1        0.0538
     23 C         143.2441  142.2502  166.9374 C.ar    1  UNL1        0.0076
     24 C         143.7924  143.0252  165.7761 C.ar    1  UNL1        0.0376
     25 C         142.4550  140.0003  167.9694 C.2     1  UNL1        0.2490
     26 O         143.1374  138.7434  168.4215 O.2     1  UNL1       -0.2699
     27 N         141.2242  140.4822  168.6787 N.am    1  UNL1       -0.2760
     28 C         140.2992  141.6525  168.5216 C.3     1  UNL1        0.0955
     29 C         139.4837  141.1637  169.6818 C.3     1  UNL1        0.0430
     30 C         140.4087  139.9934  169.8389 C.3     1  UNL1        0.0955
     31 O         140.4718  143.3918  160.2464 O.3     1  UNL1       -0.4765
     32 C         139.7514  144.2764  161.2203 C.3     1  UNL1        0.1951
     33 C         140.0521  145.7453  161.2636 C.3     1  UNL1        0.0500
     34 C         138.7303  143.6921  162.1509 C.3     1  UNL1        0.1807
     35 O         137.5492  144.5119  162.5786 O.3     1  UNL1       -0.3785
     36 H         137.8523  145.2586  163.1184 H       1  UNL1        0.2106
@<TRIPOS>BOND
     1    16    17    1
     2    17    11    1
     3    11    12   ar
     4    12    13   ar
     5    13    14   ar
     6    14     7    1
     7     7     8   am
     8     8     9    2
     9     8     1    1
    10     1     2   ar
    11     2     3   ar
    12     3    18    1
    13    18    19    1
    14    19    20   ar
    15    20    21   ar
    16    21    22   ar
    17    22    25    1
    18    25    26    2
    19    25    27   am
    20    27    28    1
    21    28    29    1
    22    29    30    1
    23    22    23   ar
    24    23    24   ar
    25     3     4   ar
    26     4     5   ar
    27     5    31    1
    28    31    32    1
    29    32    33    1
    30    32    34    1
    31    34    35    1
    32     5     6   ar
    33    14    15   ar
    34    15    11   ar
    35     6     1   ar
    36    24    19   ar
    37    30    27    1
    38     7    10    1
    39    35    36    1
@<TRIPOS>MOLECULE
*****
 36 39 0 0 0
SMALL
GASTEIGER

@<TRIPOS>ATOM
      1 C         139.8136  139.8582  160.5795 C.ar    1  UNL1        0.0597
      2 C         139.4832  139.0352  161.7892 C.ar    1  UNL1        0.0422
      3 C         140.5609  138.6747  162.7682 C.ar    1  UNL1        0.1485
      4 C         141.9691  139.1372  162.5375 C.ar    1  UNL1        0.0743
      5 C         142.2995  139.9601  161.3278 C.ar    1  UNL1        0.1417
      6 C         141.2218  140.3206  160.3488 C.ar    1  UNL1        0.0416
      7 N         139.0819  140.9612  158.3439 N.am    1  UNL1       -0.2644
      8 C         138.7359  140.2187  159.6004 C.2     1  UNL1        0.2508
      9 O         137.3121  139.8367  159.8779 O.2     1  UNL1       -0.2698
     10 H         140.0164  141.2119  158.1617 H       1  UNL1        0.1566
     11 N         136.1339  141.1579  155.8267 N.ar    1  UNL1       -0.2483
     12 C         136.5576  142.5954  155.8896 C.ar    1  UNL1        0.0980
     13 C         137.7136  142.6967  156.8403 C.ar    1  UNL1        0.0564
     14 C         138.0041  141.3218  157.3648 C.ar    1  UNL1        0.1557
     15 N         137.0279  140.3708  156.7384 N.ar    1  UNL1       -0.1540
     16 C         134.0427  139.6326  155.6010 C.3     1  UNL1        0.0284
     17 C         135.0129  140.6046  154.9977 C.3     1  UNL1        0.1276
     18 O         140.2305  137.8517  163.9780 O.3     1  UNL1       -0.4534
     19 C         140.0152  138.5198  165.3036 C.ar    1  UNL1        0.1453
     20 C         138.6425  138.5643  165.9069 C.ar    1  UNL1        0.0376
     21 C         138.4272  139.2324  167.2325 C.ar    1  UNL1        0.0076
     22 C         139.5846  139.8561  167.9549 C.ar    1  UNL1        0.0538
     23 C         140.9572  139.8116  167.3516 C.ar    1  UNL1        0.0076
     24 C         141.1725  139.1434  166.0260 C.ar    1  UNL1        0.0376
     25 C         139.3693  140.5242  169.2805 C.2     1  UNL1        0.2490
     26 O         138.6753  139.7877  170.3876 O.2     1  UNL1       -0.2699
     27 N         139.8481  141.9289  169.4989 N.am    1  UNL1       -0.2760
     28 C         140.5578  142.9501  168.6602 C.3     1  UNL1        0.0955
     29 C         140.5251  143.9154  169.8079 C.3     1  UNL1        0.0430
     30 C         139.8153  142.8942  170.6466 C.3     1  UNL1        0.0955
     31 O         143.7077  140.4226  161.0970 O.3     1  UNL1       -0.4765
     32 C         144.3104  141.4657  161.9906 C.3     1  UNL1        0.1951
     33 C         144.0850  142.9206  161.7033 C.3     1  UNL1        0.0500
     34 C         145.1386  141.0540  163.1716 C.3     1  UNL1        0.1807
     35 O         145.1836  139.6145  163.5909 O.3     1  UNL1       -0.3785
     36 H         144.3071  139.3415  163.9042 H       1  UNL1        0.2106
@<TRIPOS>BOND
     1    16    17    1
     2    17    11    1
     3    11    12   ar
     4    12    13   ar
     5    13    14   ar
     6    14     7    1
     7     7     8   am
     8     8     9    2
     9     8     1    1
    10     1     2   ar
    11     2     3   ar
    12     3    18    1
    13    18    19    1
    14    19    20   ar
    15    20    21   ar
    16    21    22   ar
    17    22    25    1
    18    25    26    2
    19    25    27   am
    20    27    28    1
    21    28    29    1
    22    29    30    1
    23    22    23   ar
    24    23    24   ar
    25     3     4   ar
    26     4     5   ar
    27     5    31    1
    28    31    32    1
    29    32    33    1
    30    32    34    1
    31    34    35    1
    32     5     6   ar
    33    14    15   ar
    34    15    11   ar
    35     6     1   ar
    36    24    19   ar
    37    30    27    1
    38     7    10    1
    39    35    36    1
@<TRIPOS>MOLECULE
*****
 36 39 0 0 0
SMALL
GASTEIGER

@<TRIPOS>ATOM
      1 C         143.0046  139.9265  159.8155 C.ar    1  UNL1        0.0597
      2 C         143.8642  140.3084  160.9839 C.ar    1  UNL1        0.0422
      3 C         143.5393  139.7926  162.3544 C.ar    1  UNL1        0.1485
      4 C         142.3548  138.8949  162.5565 C.ar    1  UNL1        0.0743
      5 C         141.4951  138.5130  161.3882 C.ar    1  UNL1        0.1417
      6 C         141.8200  139.0288  160.0177 C.ar    1  UNL1        0.0416
      7 N         144.5024  139.8867  157.6930 N.am    1  UNL1       -0.2644
      8 C         143.3295  140.4424  158.4449 C.2     1  UNL1        0.2508
      9 O         142.4814  141.5139  157.8264 O.2     1  UNL1       -0.2698
     10 H         145.0590  139.1834  158.0990 H       1  UNL1        0.1566
     11 N         145.5142  141.8603  154.5076 N.ar    1  UNL1       -0.2483
     12 C         145.1401  140.5322  153.9191 C.ar    1  UNL1        0.0980
     13 C         144.7155  139.6312  155.0408 C.ar    1  UNL1        0.0564
     14 C         144.8272  140.4025  156.3224 C.ar    1  UNL1        0.1557
     15 N         145.3208  141.7801  155.9929 N.ar    1  UNL1       -0.1540
     16 C         147.1474  143.8665  154.2671 C.3     1  UNL1        0.0284
     17 C         145.9968  143.0581  153.7447 C.3     1  UNL1        0.1276
     18 O         144.3990  140.1745  163.5228 O.3     1  UNL1       -0.4534
     19 C         143.8663  140.0470  164.9192 C.ar    1  UNL1        0.1453
     20 C         143.8329  138.7054  165.5896 C.ar    1  UNL1        0.0376
     21 C         143.3002  138.5779  166.9860 C.ar    1  UNL1        0.0076
     22 C         142.8010  139.7918  167.7121 C.ar    1  UNL1        0.0538
     23 C         142.8345  141.1333  167.0418 C.ar    1  UNL1        0.0076
     24 C         143.3671  141.2608  165.6453 C.ar    1  UNL1        0.0376
     25 C         142.2683  139.6643  169.1085 C.2     1  UNL1        0.2490
     26 O         143.1790  139.2417  170.2229 O.2     1  UNL1       -0.2699
     27 N         140.8249  139.9594  169.3905 N.am    1  UNL1       -0.2760
     28 C         139.6499  140.3927  168.5649 C.3     1  UNL1        0.0955
     29 C         138.7836  140.3767  169.7893 C.3     1  UNL1        0.0430
     30 C         139.9586  139.9434  170.6150 C.3     1  UNL1        0.0955
     31 O         140.3105  137.6152  161.5903 O.3     1  UNL1       -0.4765
     32 C         139.0984  138.1241  162.3127 C.3     1  UNL1        0.1951
     33 C         138.8969  137.7966  163.7626 C.3     1  UNL1        0.0500
     34 C         138.0879  138.9605  161.5852 C.3     1  UNL1        0.1807
     35 O         137.3362  140.0332  162.3162 O.3     1  UNL1       -0.3785
     36 H         136.7609  139.6274  162.9835 H       1  UNL1        0.2106
@<TRIPOS>BOND
     1    16    17    1
     2    17    11    1
     3    11    12   ar
     4    12    13   ar
     5    13    14   ar
     6    14     7    1
     7     7     8   am
     8     8     9    2
     9     8     1    1
    10     1     2   ar
    11     2     3   ar
    12     3    18    1
    13    18    19    1
    14    19    20   ar
    15    20    21   ar
    16    21    22   ar
    17    22    25    1
    18    25    26    2
    19    25    27   am
    20    27    28    1
    21    28    29    1
    22    29    30    1
    23    22    23   ar
    24    23    24   ar
    25     3     4   ar
    26     4     5   ar
    27     5    31    1
    28    31    32    1
    29    32    33    1
    30    32    34    1
    31    34    35    1
    32     5     6   ar
    33    14    15   ar
    34    15    11   ar
    35     6     1   ar
    36    24    19   ar
    37    30    27    1
    38     7    10    1
    39    35    36    1
@<TRIPOS>MOLECULE
*****
 36 39 0 0 0
SMALL
GASTEIGER

@<TRIPOS>ATOM
      1 C         143.8703  141.5781  159.5600 C.ar    1  UNL1        0.0597
      2 C         143.4078  140.4121  160.3825 C.ar    1  UNL1        0.0422
      3 C         142.6704  140.6463  161.6675 C.ar    1  UNL1        0.1485
      4 C         142.3954  142.0465  162.1300 C.ar    1  UNL1        0.0743
      5 C         142.8579  143.2125  161.3075 C.ar    1  UNL1        0.1417
      6 C         143.5953  142.9783  160.0225 C.ar    1  UNL1        0.0416
      7 N         145.4064  142.4524  157.6557 N.am    1  UNL1       -0.2644
      8 C         144.6077  141.3439  158.2749 C.2     1  UNL1        0.2508
      9 O         144.5465  140.0012  157.6090 O.2     1  UNL1       -0.2698
     10 H         145.4465  143.3337  158.0928 H       1  UNL1        0.1566
     11 N         147.9316  141.9145  154.7576 N.ar    1  UNL1       -0.2483
     12 C         146.6255  141.8014  154.0287 C.ar    1  UNL1        0.0980
     13 C         145.5205  141.9891  155.0256 C.ar    1  UNL1        0.0564
     14 C         146.1438  142.2183  156.3706 C.ar    1  UNL1        0.1557
     15 N         147.6339  142.1721  156.2050 N.ar    1  UNL1       -0.1540
     16 C         150.5130  141.7871  155.0232 C.3     1  UNL1        0.0284
     17 C         149.2959  141.7915  154.1464 C.3     1  UNL1        0.1276
     18 O         142.2079  139.4803  162.4901 O.3     1  UNL1       -0.4534
     19 C         141.6053  139.7100  163.8444 C.ar    1  UNL1        0.1453
     20 C         142.4688  139.6498  165.0695 C.ar    1  UNL1        0.0376
     21 C         141.8663  139.8794  166.4238 C.ar    1  UNL1        0.0076
     22 C         140.4002  140.1692  166.5531 C.ar    1  UNL1        0.0538
     23 C         139.5367  140.2294  165.3280 C.ar    1  UNL1        0.0076
     24 C         140.1393  139.9998  163.9737 C.ar    1  UNL1        0.0376
     25 C         139.7976  140.3989  167.9074 C.2     1  UNL1        0.2490
     26 O         138.8163  139.4130  168.4686 O.2     1  UNL1       -0.2699
     27 N         140.1764  141.6145  168.7005 N.am    1  UNL1       -0.2760
     28 C         141.0908  142.7828  168.4793 C.3     1  UNL1        0.0955
     29 C         140.7120  143.3335  169.8221 C.3     1  UNL1        0.0430
     30 C         139.7976  142.1652  170.0433 C.3     1  UNL1        0.0955
     31 O         142.5829  144.6127  161.7700 O.3     1  UNL1       -0.4765
     32 C         142.4740  144.9105  163.2360 C.3     1  UNL1        0.1951
     33 C         141.1239  145.0370  163.8774 C.3     1  UNL1        0.0500
     34 C         143.7152  145.0818  164.0608 C.3     1  UNL1        0.1807
     35 O         144.2003  143.9584  164.9282 O.3     1  UNL1       -0.3785
     36 H         143.5567  143.7948  165.6354 H       1  UNL1        0.2106
@<TRIPOS>BOND
     1    16    17    1
     2    17    11    1
     3    11    12   ar
     4    12    13   ar
     5    13    14   ar
     6    14     7    1
     7     7     8   am
     8     8     9    2
     9     8     1    1
    10     1     2   ar
    11     2     3   ar
    12     3    18    1
    13    18    19    1
    14    19    20   ar
    15    20    21   ar
    16    21    22   ar
    17    22    25    1
    18    25    26    2
    19    25    27   am
    20    27    28    1
    21    28    29    1
    22    29    30    1
    23    22    23   ar
    24    23    24   ar
    25     3     4   ar
    26     4     5   ar
    27     5    31    1
    28    31    32    1
    29    32    33    1
    30    32    34    1
    31    34    35    1
    32     5     6   ar
    33    14    15   ar
    34    15    11   ar
    35     6     1   ar
    36    24    19   ar
    37    30    27    1
    38     7    10    1
    39    35    36    1
@<TRIPOS>MOLECULE
*****
 36 39 0 0 0
SMALL
GASTEIGER

@<TRIPOS>ATOM
      1 C         140.0733  138.7293  160.1458 C.ar    1  UNL1        0.0597
      2 C         139.0107  139.1408  161.1212 C.ar    1  UNL1        0.0422
      3 C         139.3273  139.2220  162.5851 C.ar    1  UNL1        0.1485
      4 C         140.7065  138.8918  163.0736 C.ar    1  UNL1        0.0743
      5 C         141.7692  138.4803  162.0982 C.ar    1  UNL1        0.1417
      6 C         141.4526  138.3991  160.6343 C.ar    1  UNL1        0.0416
      7 N         140.5522  137.7398  157.7917 N.am    1  UNL1       -0.2644
      8 C         139.7568  138.6481  158.6817 C.2     1  UNL1        0.2508
      9 O         138.6447  139.4751  158.1079 O.2     1  UNL1       -0.2698
     10 H         141.2821  137.1969  158.1684 H       1  UNL1        0.1566
     11 N         139.0297  137.3952  154.2380 N.ar    1  UNL1       -0.2483
     12 C         140.4675  137.6718  153.9117 C.ar    1  UNL1        0.0980
     13 C         141.2128  137.8345  155.2033 C.ar    1  UNL1        0.0564
     14 C         140.2357  137.6585  156.3277 C.ar    1  UNL1        0.1557
     15 N         138.8865  137.3870  155.7311 N.ar    1  UNL1       -0.1540
     16 C         136.5754  137.7726  153.4737 C.3     1  UNL1        0.0284
     17 C         137.9286  137.1669  153.2454 C.3     1  UNL1        0.1276
     18 O         138.2646  139.6335  163.5606 O.3     1  UNL1       -0.4534
     19 C         138.6173  139.8662  164.9998 C.ar    1  UNL1        0.1453
     20 C         139.4175  141.0735  165.3902 C.ar    1  UNL1        0.0376
     21 C         139.7701  141.3061  166.8295 C.ar    1  UNL1        0.0076
     22 C         139.3226  140.3316  167.8784 C.ar    1  UNL1        0.0538
     23 C         138.5224  139.1244  167.4879 C.ar    1  UNL1        0.0076
     24 C         138.1698  138.8918  166.0487 C.ar    1  UNL1        0.0376
     25 C         139.6752  140.5643  169.3176 C.2     1  UNL1        0.2490
     26 O         138.5951  140.8559  170.3168 O.2     1  UNL1       -0.2699
     27 N         141.1080  140.5053  169.7578 N.am    1  UNL1       -0.2760
     28 C         142.4181  140.2495  169.0735 C.3     1  UNL1        0.0955
     29 C         143.1342  140.4219  170.3803 C.3     1  UNL1        0.0430
     30 C         141.8241  140.6776  171.0645 C.3     1  UNL1        0.0955
     31 O         143.1484  138.1501  162.5867 O.3     1  UNL1       -0.4765
     32 C         144.0944  139.2516  162.9633 C.3     1  UNL1        0.1951
     33 C         144.7057  139.2797  164.3328 C.3     1  UNL1        0.0500
     34 C         144.4291  140.3250  161.9704 C.3     1  UNL1        0.1807
     35 O         143.5713  141.5517  161.8743 O.3     1  UNL1       -0.3785
     36 H         142.6890  141.3050  161.5555 H       1  UNL1        0.2106
@<TRIPOS>BOND
     1    16    17    1
     2    17    11    1
     3    11    12   ar
     4    12    13   ar
     5    13    14   ar
     6    14     7    1
     7     7     8   am
     8     8     9    2
     9     8     1    1
    10     1     2   ar
    11     2     3   ar
    12     3    18    1
    13    18    19    1
    14    19    20   ar
    15    20    21   ar
    16    21    22   ar
    17    22    25    1
    18    25    26    2
    19    25    27   am
    20    27    28    1
    21    28    29    1
    22    29    30    1
    23    22    23   ar
    24    23    24   ar
    25     3     4   ar
    26     4     5   ar
    27     5    31    1
    28    31    32    1
    29    32    33    1
    30    32    34    1
    31    34    35    1
    32     5     6   ar
    33    14    15   ar
    34    15    11   ar
    35     6     1   ar
    36    24    19   ar
    37    30    27    1
    38     7    10    1
    39    35    36    1
