@<TRIPOS>MOLECULE
*****
 30 34 0 0 0
SMALL
GASTEIGER

@<TRIPOS>ATOM
      1 C         140.7672  140.2322  167.6409 C.2     1  UNL1        0.0866
      2 N         139.3118  139.8691  167.6425 N.2     1  UNL1       -0.1523
      3 N         139.0044  139.1800  166.3461 N.2     1  UNL1       -0.1523
      4 C         140.2700  139.1172  165.5432 C.2     1  UNL1        0.0858
      5 C         141.3594  139.7675  166.3435 C.3     1  UNL1        0.0883
      6 C         142.6248  139.7047  165.5406 C.3     1  UNL1        0.0384
      7 C         142.3176  139.0156  164.2441 C.ar    1  UNL1       -0.0205
      8 C         143.1750  138.6718  163.0624 C.ar    1  UNL1       -0.0071
      9 C         142.5771  137.9650  161.8822 C.ar    1  UNL1       -0.0065
     10 C         141.1217  137.6019  161.8838 C.ar    1  UNL1       -0.0029
     11 C         140.2642  137.9457  163.0656 C.ar    1  UNL1        0.0006
     12 C         140.8622  138.6525  164.2457 C.ar    1  UNL1        0.0117
     13 C         143.1883  142.1829  169.9643 C.ar    1  UNL1        0.0709
     14 C         142.8342  141.6140  168.6223 C.ar    1  UNL1        0.0165
     15 C         141.5015  140.9363  168.7432 C.ar    1  UNL1        0.0233
     16 C         141.0319  141.0863  170.1599 C.ar    1  UNL1        0.0373
     17 S         142.0744  141.8568  170.9146 S.2     1  UNL1       -0.0780
     18 C         145.6857  143.7055  170.6307 C.1     1  UNL1       -0.0859
     19 C         144.4370  142.9442  170.2975 C.1     1  UNL1       -0.0578
     20 C         146.9345  144.4668  170.9640 C.3     1  UNL1        0.0764
     21 C         147.5942  145.8468  173.0640 C.3     1  UNL1        0.0011
     22 C         146.8505  145.7312  171.7665 C.3     1  UNL1        0.0140
     23 C         143.4345  137.6212  160.7004 C.3     1  UNL1        0.0992
     24 N         143.3091  138.4071  159.4289 N.3     1  UNL1       -0.2665
     25 C         143.7988  139.8238  159.3714 C.3     1  UNL1        0.0899
     26 C         143.6733  140.6096  158.0998 C.3     1  UNL1        0.0897
     27 N         143.0582  139.9787  156.8859 N.3     1  UNL1       -0.2691
     28 C         142.9327  140.7646  155.6144 C.3     1  UNL1        0.0897
     29 C         142.5685  138.5621  156.9434 C.3     1  UNL1        0.0897
     30 C         142.6940  137.7763  158.2149 C.3     1  UNL1        0.0899
@<TRIPOS>BOND
     1    21    22    1
     2    22    20    1
     3    20    18    1
     4    18    19    3
     5    19    13    1
     6    13    14   ar
     7    14    15   ar
     8    15     1    1
     9     1     2    2
    10     2     3    1
    11     3     4    2
    12     4     5    1
    13     5     6    1
    14     6     7    1
    15     7     8   ar
    16     8     9   ar
    17     9    23    1
    18    23    24    1
    19    24    25    1
    20    25    26    1
    21    26    27    1
    22    27    28    1
    23    27    29    1
    24    29    30    1
    25     9    10   ar
    26    10    11   ar
    27    11    12   ar
    28    15    16   ar
    29    16    17   ar
    30    17    13   ar
    31     5     1    1
    32    12     7   ar
    33    12     4    1
    34    30    24    1
@<TRIPOS>MOLECULE
*****
 30 34 0 0 0
SMALL
GASTEIGER

@<TRIPOS>ATOM
      1 C         140.3794  141.6884  167.5541 C.2     1  UNL1        0.0866
      2 N         140.3787  143.1884  167.5509 N.2     1  UNL1       -0.1523
      3 N         139.8298  143.6489  166.2330 N.2     1  UNL1       -0.1523
      4 C         139.4913  142.4334  165.4218 C.2     1  UNL1        0.0858
      5 C         139.8309  141.2218  166.2382 C.3     1  UNL1        0.0883
      6 C         139.4924  140.0064  165.4269 C.3     1  UNL1        0.0384
      7 C         138.9435  140.4669  164.1091 C.ar    1  UNL1       -0.0205
      8 C         138.4442  139.7141  162.9116 C.ar    1  UNL1       -0.0071
      9 C         137.9443  140.4613  161.7109 C.ar    1  UNL1       -0.0065
     10 C         137.9436  141.9613  161.7077 C.ar    1  UNL1       -0.0029
     11 C         138.4429  142.7141  162.9052 C.ar    1  UNL1        0.0006
     12 C         138.9428  141.9669  164.1059 C.ar    1  UNL1        0.0117
     13 C         142.0426  139.1146  169.9362 C.ar    1  UNL1        0.0709
     14 C         141.8934  139.7392  168.5807 C.ar    1  UNL1        0.0165
     15 C         140.8465  140.8093  168.6761 C.ar    1  UNL1        0.0233
     16 C         140.3488  140.8460  170.0907 C.ar    1  UNL1        0.0373
     17 S         141.0880  139.7985  170.8695 S.2     1  UNL1       -0.0780
     18 C         143.9206  136.8882  170.6546 C.1     1  UNL1       -0.0859
     19 C         142.9816  138.0013  170.2954 C.1     1  UNL1       -0.0578
     20 C         144.8595  135.7749  171.0137 C.3     1  UNL1        0.0764
     21 C         146.2418  135.6135  173.2077 C.3     1  UNL1        0.0011
     22 C         144.9843  135.3298  172.4407 C.3     1  UNL1        0.0140
     23 C         137.4450  139.7085  160.5134 C.3     1  UNL1        0.0992
     24 N         138.2226  139.7383  159.2310 N.3     1  UNL1       -0.2665
     25 C         137.8163  140.6714  158.1290 C.3     1  UNL1        0.0899
     26 C         138.5939  140.7012  156.8467 C.3     1  UNL1        0.0897
     27 N         139.7778  139.7978  156.6663 N.3     1  UNL1       -0.2691
     28 C         140.5554  139.8276  155.3840 C.3     1  UNL1        0.0897
     29 C         140.1840  138.8648  157.7683 C.3     1  UNL1        0.0897
     30 C         139.4064  138.8350  159.0506 C.3     1  UNL1        0.0899
@<TRIPOS>BOND
     1    21    22    1
     2    22    20    1
     3    20    18    1
     4    18    19    3
     5    19    13    1
     6    13    14   ar
     7    14    15   ar
     8    15     1    1
     9     1     2    2
    10     2     3    1
    11     3     4    2
    12     4     5    1
    13     5     6    1
    14     6     7    1
    15     7     8   ar
    16     8     9   ar
    17     9    23    1
    18    23    24    1
    19    24    25    1
    20    25    26    1
    21    26    27    1
    22    27    28    1
    23    27    29    1
    24    29    30    1
    25     9    10   ar
    26    10    11   ar
    27    11    12   ar
    28    15    16   ar
    29    16    17   ar
    30    17    13   ar
    31     5     1    1
    32    12     7   ar
    33    12     4    1
    34    30    24    1
@<TRIPOS>MOLECULE
*****
 30 34 0 0 0
SMALL
GASTEIGER

@<TRIPOS>ATOM
      1 C         139.9723  140.5395  168.1332 C.2     1  UNL1        0.0866
      2 N         138.8254  139.7329  168.6662 N.2     1  UNL1       -0.1523
      3 N         138.3199  138.8573  167.5581 N.2     1  UNL1       -0.1523
      4 C         139.1544  139.1227  166.3402 C.2     1  UNL1        0.0858
      5 C         140.1756  140.1624  166.6956 C.3     1  UNL1        0.0883
      6 C         141.0100  140.4278  165.4778 C.3     1  UNL1        0.0384
      7 C         140.5046  139.5522  164.3697 C.ar    1  UNL1       -0.0205
      8 C         140.9404  139.3851  162.9442 C.ar    1  UNL1       -0.0071
      9 C         140.2294  138.4115  162.0517 C.ar    1  UNL1       -0.0065
     10 C         139.0826  137.6050  162.5848 C.ar    1  UNL1       -0.0029
     11 C         138.6467  137.7720  164.0103 C.ar    1  UNL1        0.0006
     12 C         139.3577  138.7456  164.9027 C.ar    1  UNL1        0.0117
     13 C         142.6422  142.7477  169.8826 C.ar    1  UNL1        0.0709
     14 C         142.2696  141.5749  169.0248 C.ar    1  UNL1        0.0165
     15 C         140.7749  141.5464  168.9025 C.ar    1  UNL1        0.0233
     16 C         140.2236  142.7015  169.6847 C.ar    1  UNL1        0.0373
     17 S         141.3778  143.4440  170.2904 S.2     1  UNL1       -0.0780
     18 C         145.4273  143.5583  170.6480 C.1     1  UNL1       -0.0859
     19 C         144.0348  143.1530  170.2653 C.1     1  UNL1       -0.0578
     20 C         146.8199  143.9637  171.0307 C.3     1  UNL1        0.0764
     21 C         146.0292  146.2046  172.0811 C.3     1  UNL1        0.0011
     22 C         147.1039  145.3792  171.4378 C.3     1  UNL1        0.0140
     23 C         140.6653  138.2444  160.6261 C.3     1  UNL1        0.0992
     24 N         139.8656  138.8659  159.5197 N.3     1  UNL1       -0.2665
     25 C         138.7994  139.8717  159.8384 C.3     1  UNL1        0.0899
     26 C         137.9997  140.4932  158.7320 C.3     1  UNL1        0.0897
     27 N         138.2663  140.1088  157.3067 N.3     1  UNL1       -0.2691
     28 C         137.4666  140.7303  156.2002 C.3     1  UNL1        0.0897
     29 C         139.3325  139.1031  156.9880 C.3     1  UNL1        0.0897
     30 C         140.1322  138.4816  158.0945 C.3     1  UNL1        0.0899
@<TRIPOS>BOND
     1    21    22    1
     2    22    20    1
     3    20    18    1
     4    18    19    3
     5    19    13    1
     6    13    14   ar
     7    14    15   ar
     8    15     1    1
     9     1     2    2
    10     2     3    1
    11     3     4    2
    12     4     5    1
    13     5     6    1
    14     6     7    1
    15     7     8   ar
    16     8     9   ar
    17     9    23    1
    18    23    24    1
    19    24    25    1
    20    25    26    1
    21    26    27    1
    22    27    28    1
    23    27    29    1
    24    29    30    1
    25     9    10   ar
    26    10    11   ar
    27    11    12   ar
    28    15    16   ar
    29    16    17   ar
    30    17    13   ar
    31     5     1    1
    32    12     7   ar
    33    12     4    1
    34    30    24    1
@<TRIPOS>MOLECULE
*****
 30 34 0 0 0
SMALL
GASTEIGER

@<TRIPOS>ATOM
      1 C         140.8624  141.1631  167.1124 C.2     1  UNL1        0.0866
      2 N         139.7978  140.1133  166.9928 N.2     1  UNL1       -0.1523
      3 N         139.0641  140.3416  165.7045 N.2     1  UNL1       -0.1523
      4 C         139.6754  141.5327  165.0279 C.2     1  UNL1        0.0858
      5 C         140.7868  142.0404  165.8980 C.3     1  UNL1        0.0883
      6 C         141.3980  143.2314  165.2214 C.3     1  UNL1        0.0384
      7 C         140.6644  143.4598  163.9331 C.ar    1  UNL1       -0.0205
      8 C         140.8284  144.4881  162.8534 C.ar    1  UNL1       -0.0071
      9 C         139.9276  144.4666  161.6542 C.ar    1  UNL1       -0.0065
     10 C         138.8630  143.4167  161.5347 C.ar    1  UNL1       -0.0029
     11 C         138.6990  142.3884  162.6143 C.ar    1  UNL1        0.0006
     12 C         139.5998  142.4099  163.8135 C.ar    1  UNL1        0.0117
     13 C         143.6326  142.1296  169.6536 C.ar    1  UNL1        0.0709
     14 C         142.9002  142.3569  168.3644 C.ar    1  UNL1        0.0165
     15 C         141.8324  141.3100  168.2471 C.ar    1  UNL1        0.0233
     16 C         141.9048  140.4356  169.4638 C.ar    1  UNL1        0.0373
     17 S         143.0175  140.9422  170.3331 S.2     1  UNL1       -0.0780
     18 C         145.9251  143.7631  170.6907 C.1     1  UNL1       -0.0859
     19 C         144.7789  142.9464  170.1722 C.1     1  UNL1       -0.0578
     20 C         147.0715  144.5797  171.2093 C.3     1  UNL1        0.0764
     21 C         147.5920  146.2043  173.1689 C.3     1  UNL1        0.0011
     22 C         146.8084  145.8656  171.9355 C.3     1  UNL1        0.0140
     23 C         140.0915  145.4949  160.5745 C.3     1  UNL1        0.0992
     24 N         140.7841  145.1339  159.2939 N.3     1  UNL1       -0.2665
     25 C         141.8817  144.1115  159.2972 C.3     1  UNL1        0.0899
     26 C         142.5743  143.7505  158.0166 C.3     1  UNL1        0.0897
     27 N         142.1693  144.4120  156.7327 N.3     1  UNL1       -0.2691
     28 C         142.8619  144.0510  155.4520 C.3     1  UNL1        0.0897
     29 C         141.0718  145.4344  156.7293 C.3     1  UNL1        0.0897
     30 C         140.3792  145.7953  158.0100 C.3     1  UNL1        0.0899
@<TRIPOS>BOND
     1    21    22    1
     2    22    20    1
     3    20    18    1
     4    18    19    3
     5    19    13    1
     6    13    14   ar
     7    14    15   ar
     8    15     1    1
     9     1     2    2
    10     2     3    1
    11     3     4    2
    12     4     5    1
    13     5     6    1
    14     6     7    1
    15     7     8   ar
    16     8     9   ar
    17     9    23    1
    18    23    24    1
    19    24    25    1
    20    25    26    1
    21    26    27    1
    22    27    28    1
    23    27    29    1
    24    29    30    1
    25     9    10   ar
    26    10    11   ar
    27    11    12   ar
    28    15    16   ar
    29    16    17   ar
    30    17    13   ar
    31     5     1    1
    32    12     7   ar
    33    12     4    1
    34    30    24    1
@<TRIPOS>MOLECULE
*****
 30 34 0 0 0
SMALL
GASTEIGER

@<TRIPOS>ATOM
      1 C         138.6411  140.1725  162.5385 C.2     1  UNL1        0.0866
      2 N         137.4740  140.8293  161.8628 N.2     1  UNL1       -0.1523
      3 N         137.5952  140.5859  160.3877 N.2     1  UNL1       -0.1523
      4 C         138.8373  139.7785  160.1517 C.2     1  UNL1        0.0858
      5 C         139.4836  139.5230  161.4810 C.3     1  UNL1        0.0883
      6 C         140.7255  138.7157  161.2449 C.3     1  UNL1        0.0384
      7 C         140.8468  138.4722  159.7698 C.ar    1  UNL1       -0.0205
      8 C         141.8691  137.7373  158.9546 C.ar    1  UNL1       -0.0071
      9 C         141.7244  137.6592  157.4636 C.ar    1  UNL1       -0.0065
     10 C         140.5574  138.3161  156.7879 C.ar    1  UNL1       -0.0029
     11 C         139.5351  139.0511  157.6032 C.ar    1  UNL1        0.0006
     12 C         139.6798  139.1291  159.0941 C.ar    1  UNL1        0.0117
     13 C         139.5943  140.8610  166.2375 C.ar    1  UNL1        0.0709
     14 C         139.4878  141.3028  164.8080 C.ar    1  UNL1        0.0165
     15 C         138.9171  140.1661  164.0129 C.ar    1  UNL1        0.0233
     16 C         138.6708  139.0218  164.9510 C.ar    1  UNL1        0.0373
     17 S         139.0894  139.4514  166.3259 S.2     1  UNL1       -0.0780
     18 C         140.6346  142.5079  168.5190 C.1     1  UNL1       -0.0859
     19 C         140.1145  141.6845  167.3783 C.1     1  UNL1       -0.0578
     20 C         141.1548  143.3314  169.6598 C.3     1  UNL1        0.0764
     21 C         143.5548  142.3543  169.4728 C.3     1  UNL1        0.0011
     22 C         142.4711  142.9897  170.2925 C.3     1  UNL1        0.0140
     23 C         142.7468  136.9243  156.6483 C.3     1  UNL1        0.0992
     24 N         142.6194  135.4438  156.4434 N.3     1  UNL1       -0.2665
     25 C         141.6805  134.9087  155.4031 C.3     1  UNL1        0.0899
     26 C         141.5532  133.4282  155.1982 C.3     1  UNL1        0.0897
     27 N         142.3647  132.4828  156.0335 N.3     1  UNL1       -0.2691
     28 C         142.2374  131.0024  155.8286 C.3     1  UNL1        0.0897
     29 C         143.3036  133.0180  157.0737 C.3     1  UNL1        0.0897
     30 C         143.4310  134.4985  157.2787 C.3     1  UNL1        0.0899
@<TRIPOS>BOND
     1    21    22    1
     2    22    20    1
     3    20    18    1
     4    18    19    3
     5    19    13    1
     6    13    14   ar
     7    14    15   ar
     8    15     1    1
     9     1     2    2
    10     2     3    1
    11     3     4    2
    12     4     5    1
    13     5     6    1
    14     6     7    1
    15     7     8   ar
    16     8     9   ar
    17     9    23    1
    18    23    24    1
    19    24    25    1
    20    25    26    1
    21    26    27    1
    22    27    28    1
    23    27    29    1
    24    29    30    1
    25     9    10   ar
    26    10    11   ar
    27    11    12   ar
    28    15    16   ar
    29    16    17   ar
    30    17    13   ar
    31     5     1    1
    32    12     7   ar
    33    12     4    1
    34    30    24    1
@<TRIPOS>MOLECULE
*****
 30 34 0 0 0
SMALL
GASTEIGER

@<TRIPOS>ATOM
      1 C         140.0514  140.3095  167.8549 C.2     1  UNL1        0.0866
      2 N         138.8502  139.4470  168.1061 N.2     1  UNL1       -0.1523
      3 N         138.2964  139.0251  166.7774 N.2     1  UNL1       -0.1523
      4 C         139.1554  139.6269  165.7050 C.2     1  UNL1        0.0858
      5 C         140.2401  140.4207  166.3710 C.3     1  UNL1        0.0883
      6 C         141.0991  141.0224  165.2986 C.3     1  UNL1        0.0384
      7 C         140.5454  140.6006  163.9699 C.ar    1  UNL1       -0.0205
      8 C         140.9798  140.8904  162.5638 C.ar    1  UNL1       -0.0071
      9 C         140.2129  140.3177  161.4088 C.ar    1  UNL1       -0.0065
     10 C         139.0117  139.4552  161.6600 C.ar    1  UNL1       -0.0029
     11 C         138.5773  139.1654  163.0661 C.ar    1  UNL1        0.0006
     12 C         139.3441  139.7381  164.2211 C.ar    1  UNL1        0.0117
     13 C         142.7499  142.0994  169.9950 C.ar    1  UNL1        0.0709
     14 C         142.2469  141.5950  168.6749 C.ar    1  UNL1        0.0165
     15 C         140.9128  140.9486  168.9035 C.ar    1  UNL1        0.0233
     16 C         140.5912  141.0534  170.3649 C.ar    1  UNL1        0.0373
     17 S         141.7267  141.7647  171.0395 S.2     1  UNL1       -0.0780
     18 C         145.3464  143.5269  170.4638 C.1     1  UNL1       -0.0859
     19 C         144.0482  142.8132  170.2294 C.1     1  UNL1       -0.0578
     20 C         146.6447  144.2407  170.6983 C.3     1  UNL1        0.0764
     21 C         146.0177  146.5640  171.6775 C.3     1  UNL1        0.0011
     22 C         146.7527  145.2614  171.7921 C.3     1  UNL1        0.0140
     23 C         140.6474  140.6075  160.0026 C.3     1  UNL1        0.0992
     24 N         140.8920  139.4787  159.0455 N.3     1  UNL1       -0.2665
     25 C         142.2254  138.7919  159.0209 C.3     1  UNL1        0.0899
     26 C         142.4700  137.6631  158.0639 C.3     1  UNL1        0.0897
     27 N         141.3813  137.2211  157.1314 N.3     1  UNL1       -0.2691
     28 C         141.6259  136.0923  156.1744 C.3     1  UNL1        0.0897
     29 C         140.0480  137.9079  157.1561 C.3     1  UNL1        0.0897
     30 C         139.8034  139.0367  158.1131 C.3     1  UNL1        0.0899
@<TRIPOS>BOND
     1    21    22    1
     2    22    20    1
     3    20    18    1
     4    18    19    3
     5    19    13    1
     6    13    14   ar
     7    14    15   ar
     8    15     1    1
     9     1     2    2
    10     2     3    1
    11     3     4    2
    12     4     5    1
    13     5     6    1
    14     6     7    1
    15     7     8   ar
    16     8     9   ar
    17     9    23    1
    18    23    24    1
    19    24    25    1
    20    25    26    1
    21    26    27    1
    22    27    28    1
    23    27    29    1
    24    29    30    1
    25     9    10   ar
    26    10    11   ar
    27    11    12   ar
    28    15    16   ar
    29    16    17   ar
    30    17    13   ar
    31     5     1    1
    32    12     7   ar
    33    12     4    1
    34    30    24    1
@<TRIPOS>MOLECULE
*****
 30 34 0 0 0
SMALL
GASTEIGER

@<TRIPOS>ATOM
      1 C         139.9840  140.7006  167.9582 C.2     1  UNL1        0.0866
      2 N         139.1225  139.4878  168.1504 N.2     1  UNL1       -0.1523
      3 N         138.4102  139.2156  166.8587 N.2     1  UNL1       -0.1523
      4 C         138.8316  140.2602  165.8680 C.2     1  UNL1        0.0858
      5 C         139.8042  141.1779  166.5476 C.3     1  UNL1        0.0883
      6 C         140.2255  142.2225  165.5569 C.3     1  UNL1        0.0384
      7 C         139.5133  141.9504  164.2651 C.ar    1  UNL1       -0.0205
      8 C         139.5380  142.6502  162.9387 C.ar    1  UNL1       -0.0071
      9 C         138.7011  142.1372  161.8044 C.ar    1  UNL1       -0.0065
     10 C         137.8396  140.9244  161.9967 C.ar    1  UNL1       -0.0029
     11 C         137.8150  140.2246  163.3232 C.ar    1  UNL1        0.0006
     12 C         138.6518  140.7376  164.4574 C.ar    1  UNL1        0.0117
     13 C         142.7721  142.3761  170.0757 C.ar    1  UNL1        0.0709
     14 C         142.2632  141.8350  168.7726 C.ar    1  UNL1        0.0165
     15 C         140.8697  141.3262  168.9945 C.ar    1  UNL1        0.0233
     16 C         140.5174  141.5527  170.4349 C.ar    1  UNL1        0.0373
     17 S         141.6933  142.2017  171.1031 S.2     1  UNL1       -0.0780
     18 C         145.4736  143.5934  170.5448 C.1     1  UNL1       -0.0859
     19 C         144.1229  142.9848  170.3103 C.1     1  UNL1       -0.0578
     20 C         146.8244  144.2020  170.7793 C.3     1  UNL1        0.0764
     21 C         145.9891  146.4444  171.7912 C.3     1  UNL1        0.0011
     22 C         146.9821  145.3203  171.7664 C.3     1  UNL1        0.0140
     23 C         138.7257  142.8370  160.4779 C.3     1  UNL1        0.0992
     24 N         139.9668  142.8050  159.6359 N.3     1  UNL1       -0.2665
     25 C         140.7167  144.0738  159.3568 C.3     1  UNL1        0.0899
     26 C         141.9577  144.0417  158.5148 C.3     1  UNL1        0.0897
     27 N         142.4488  142.7408  157.9521 N.3     1  UNL1       -0.2691
     28 C         143.6898  142.7087  157.1101 C.3     1  UNL1        0.0897
     29 C         141.6989  141.4721  158.2312 C.3     1  UNL1        0.0897
     30 C         140.4579  141.5042  159.0732 C.3     1  UNL1        0.0899
@<TRIPOS>BOND
     1    21    22    1
     2    22    20    1
     3    20    18    1
     4    18    19    3
     5    19    13    1
     6    13    14   ar
     7    14    15   ar
     8    15     1    1
     9     1     2    2
    10     2     3    1
    11     3     4    2
    12     4     5    1
    13     5     6    1
    14     6     7    1
    15     7     8   ar
    16     8     9   ar
    17     9    23    1
    18    23    24    1
    19    24    25    1
    20    25    26    1
    21    26    27    1
    22    27    28    1
    23    27    29    1
    24    29    30    1
    25     9    10   ar
    26    10    11   ar
    27    11    12   ar
    28    15    16   ar
    29    16    17   ar
    30    17    13   ar
    31     5     1    1
    32    12     7   ar
    33    12     4    1
    34    30    24    1
@<TRIPOS>MOLECULE
*****
 30 34 0 0 0
SMALL
GASTEIGER

@<TRIPOS>ATOM
      1 C         142.8530  139.0073  158.5598 C.2     1  UNL1        0.0866
      2 N         143.4218  140.3419  158.1787 N.2     1  UNL1       -0.1523
      3 N         143.8565  141.0365  159.4352 N.2     1  UNL1       -0.1523
      4 C         143.5562  140.1310  160.5929 C.2     1  UNL1        0.0858
      5 C         142.9360  138.8770  160.0518 C.3     1  UNL1        0.0883
      6 C         142.6358  137.9716  161.2094 C.3     1  UNL1        0.0384
      7 C         143.0704  138.6660  162.4660 C.ar    1  UNL1       -0.0205
      8 C         143.0216  138.2555  163.9078 C.ar    1  UNL1       -0.0071
      9 C         143.5418  139.1797  164.9687 C.ar    1  UNL1       -0.0065
     10 C         144.1106  140.5143  164.5876 C.ar    1  UNL1       -0.0029
     11 C         144.1593  140.9248  163.1458 C.ar    1  UNL1        0.0006
     12 C         143.6392  140.0006  162.0849 C.ar    1  UNL1        0.0117
     13 C         142.0588  135.9863  156.2559 C.ar    1  UNL1        0.0709
     14 C         142.9656  136.7008  157.2136 C.ar    1  UNL1        0.0165
     15 C         142.2984  137.9829  157.6148 C.ar    1  UNL1        0.0233
     16 C         140.9792  138.0609  156.9050 C.ar    1  UNL1        0.0373
     17 S         140.8311  136.8268  156.0652 S.2     1  UNL1       -0.0780
     18 C         142.6048  133.3408  154.9510 C.1     1  UNL1       -0.0859
     19 C         142.3318  134.6635  155.6034 C.1     1  UNL1       -0.0578
     20 C         142.8778  132.0180  154.2984 C.3     1  UNL1        0.0764
     21 C         144.8018  131.3280  155.9022 C.3     1  UNL1        0.0011
     22 C         143.6300  130.9552  155.0433 C.3     1  UNL1        0.0140
     23 C         143.4930  138.7692  166.4107 C.3     1  UNL1        0.0992
     24 N         142.3684  139.2372  167.2860 N.3     1  UNL1       -0.2665
     25 C         141.0529  139.6209  166.6760 C.3     1  UNL1        0.0899
     26 C         139.9283  140.0888  167.5514 C.3     1  UNL1        0.0897
     27 N         140.1192  140.1731  169.0368 N.3     1  UNL1       -0.2691
     28 C         138.9946  140.6410  169.9122 C.3     1  UNL1        0.0897
     29 C         141.4348  139.7894  169.6468 C.3     1  UNL1        0.0897
     30 C         142.5594  139.3214  168.7714 C.3     1  UNL1        0.0899
@<TRIPOS>BOND
     1    21    22    1
     2    22    20    1
     3    20    18    1
     4    18    19    3
     5    19    13    1
     6    13    14   ar
     7    14    15   ar
     8    15     1    1
     9     1     2    2
    10     2     3    1
    11     3     4    2
    12     4     5    1
    13     5     6    1
    14     6     7    1
    15     7     8   ar
    16     8     9   ar
    17     9    23    1
    18    23    24    1
    19    24    25    1
    20    25    26    1
    21    26    27    1
    22    27    28    1
    23    27    29    1
    24    29    30    1
    25     9    10   ar
    26    10    11   ar
    27    11    12   ar
    28    15    16   ar
    29    16    17   ar
    30    17    13   ar
    31     5     1    1
    32    12     7   ar
    33    12     4    1
    34    30    24    1
@<TRIPOS>MOLECULE
*****
 30 34 0 0 0
SMALL
GASTEIGER

@<TRIPOS>ATOM
      1 C         138.4500  140.1986  159.0391 C.2     1  UNL1        0.0866
      2 N         137.5241  140.5884  157.9252 N.2     1  UNL1       -0.1523
      3 N         138.0109  139.9327  156.6669 N.2     1  UNL1       -0.1523
      4 C         139.2377  139.1377  157.0033 C.2     1  UNL1        0.0858
      5 C         139.5090  139.3021  158.4693 C.3     1  UNL1        0.0883
      6 C         140.7358  138.5071  158.8056 C.3     1  UNL1        0.0384
      7 C         141.2226  137.8513  157.5474 C.ar    1  UNL1       -0.0205
      8 C         142.3893  136.9497  157.2722 C.ar    1  UNL1       -0.0071
      9 C         142.6301  136.4379  155.8830 C.ar    1  UNL1       -0.0065
     10 C         141.7043  136.8276  154.7690 C.ar    1  UNL1       -0.0029
     11 C         140.5375  137.7292  155.0443 C.ar    1  UNL1        0.0006
     12 C         140.2967  138.2411  156.4335 C.ar    1  UNL1        0.0117
     13 C         138.2396  140.5806  162.8959 C.ar    1  UNL1        0.0709
     14 C         138.3949  139.7301  161.6702 C.ar    1  UNL1        0.0165
     15 C         138.3368  140.6298  160.4713 C.ar    1  UNL1        0.0233
     16 C         138.1456  142.0364  160.9561 C.ar    1  UNL1        0.0373
     17 S         138.0855  142.0060  162.4547 S.2     1  UNL1       -0.0780
     18 C         138.2375  139.6027  165.7320 C.1     1  UNL1       -0.0859
     19 C         138.2385  140.0916  164.3140 C.1     1  UNL1       -0.0578
     20 C         138.2364  139.1137  167.1501 C.3     1  UNL1        0.0764
     21 C         140.5147  140.1442  167.8552 C.3     1  UNL1        0.0011
     22 C         139.0929  139.7917  168.1780 C.3     1  UNL1        0.0140
     23 C         143.7969  135.5362  155.6076 C.3     1  UNL1        0.0992
     24 N         143.6698  134.0576  155.8254 N.3     1  UNL1       -0.2665
     25 C         143.0464  133.1946  154.7686 C.3     1  UNL1        0.0899
     26 C         142.9193  131.7160  154.9864 C.3     1  UNL1        0.0897
     27 N         143.4157  131.1003  156.2611 N.3     1  UNL1       -0.2691
     28 C         143.2886  129.6216  156.4789 C.3     1  UNL1        0.0897
     29 C         144.0391  131.9632  157.3178 C.3     1  UNL1        0.0897
     30 C         144.1662  133.4418  157.1000 C.3     1  UNL1        0.0899
@<TRIPOS>BOND
     1    21    22    1
     2    22    20    1
     3    20    18    1
     4    18    19    3
     5    19    13    1
     6    13    14   ar
     7    14    15   ar
     8    15     1    1
     9     1     2    2
    10     2     3    1
    11     3     4    2
    12     4     5    1
    13     5     6    1
    14     6     7    1
    15     7     8   ar
    16     8     9   ar
    17     9    23    1
    18    23    24    1
    19    24    25    1
    20    25    26    1
    21    26    27    1
    22    27    28    1
    23    27    29    1
    24    29    30    1
    25     9    10   ar
    26    10    11   ar
    27    11    12   ar
    28    15    16   ar
    29    16    17   ar
    30    17    13   ar
    31     5     1    1
    32    12     7   ar
    33    12     4    1
    34    30    24    1
