@<TRIPOS>MOLECULE
*****
 31 34 0 0 0
SMALL
GASTEIGER

@<TRIPOS>ATOM
      1 C         141.4427  145.1304  161.2185 C.ar    1  UNL1        0.1412
      2 C         140.5282  145.5617  162.3265 C.ar    1  UNL1        0.0710
      3 S         140.8743  144.7655  163.5498 S.2     1  UNL1       -0.0670
      4 C         142.0028  143.8420  163.1977 C.ar    1  UNL1        0.1122
      5 N         142.3540  144.0676  161.7569 N.ar    1  UNL1       -0.2259
      6 C         142.6639  142.8646  164.1238 C.3     1  UNL1        0.1549
      7 C         141.3872  143.5383  164.5314 C.3     1  UNL1        0.1705
      8 O         140.7717  143.2346  165.8651 O.3     1  UNL1       -0.3538
      9 C         141.4328  142.2572  166.7912 C.3     1  UNL1        0.1155
     10 C         140.8171  141.9535  168.1249 C.3     1  UNL1        0.0320
     11 C         142.7094  141.5835  166.3836 C.3     1  UNL1        0.0328
     12 C         143.3250  141.8872  165.0499 C.3     1  UNL1        0.0426
     13 C         144.6018  141.2135  164.6422 C.3     1  UNL1        0.0673
     14 S         145.2174  141.5172  163.3085 S.3     1  UNL1       -0.0807
     15 C         144.5562  142.4946  162.3824 C.2     1  UNL1        0.1483
     16 N         145.1719  142.7983  161.0487 N.pl3   1  UNL1       -0.3380
     17 N         143.2796  143.1683  162.7900 N.2     1  UNL1       -0.2464
     18 H         146.0098  142.3561  160.7811 H       1  UNL1        0.1442
     19 H         144.7380  143.4398  160.4408 H       1  UNL1        0.1442
     20 C         140.4597  145.1484  158.8137 C.2     1  UNL1        0.2680
     21 O         139.4713  144.0919  159.2098 O.2     1  UNL1       -0.2681
     22 N         141.4453  145.6676  159.8181 N.am    1  UNL1       -0.2641
     23 H         142.0940  146.3611  159.5581 H       1  UNL1        0.1566
     24 C         142.3302  143.9984  156.7695 C.3     1  UNL1        0.0328
     25 C         141.3976  145.1107  156.3911 C.ar    1  UNL1        0.0026
     26 C         141.4003  145.6480  154.9906 C.ar    1  UNL1        0.0286
     27 C         140.4677  146.7603  154.6123 C.ar    1  UNL1        0.1589
     28 F         140.4704  147.2976  153.2119 F       1  UNL1       -0.2025
     29 C         139.5325  147.3353  155.6344 C.ar    1  UNL1        0.1285
     30 N         139.5298  146.7980  157.0349 N.ar    1  UNL1       -0.2372
     31 C         140.4624  145.6857  157.4133 C.ar    1  UNL1        0.1310
@<TRIPOS>BOND
     1    24    25    1
     2    25    26   ar
     3    26    27   ar
     4    27    28    1
     5    27    29   ar
     6    29    30   ar
     7    30    31   ar
     8    31    20    1
     9    20    21    2
    10    20    22   am
    11    22     1    1
    12     1     2   ar
    13     2     3   ar
    14     3     4   ar
    15     6     4    1
    16     6     7    1
    17     7     8    1
    18     8     9    1
    19     9    10    1
    20     9    11    1
    21    12    11    1
    22    12    13    1
    23    13    14    1
    24    14    15    1
    25    15    16    1
    26    15    17    2
    27     4     5   ar
    28    31    25   ar
    29     5     1   ar
    30    12     6    1
    31    17     6    1
    32    22    23    1
    33    16    18    1
    34    16    19    1
@<TRIPOS>MOLECULE
*****
 31 34 0 0 0
SMALL
GASTEIGER

@<TRIPOS>ATOM
      1 C         142.8693  142.8968  164.3721 C.ar    1  UNL1        0.1412
      2 C         143.9815  143.8950  164.2438 C.ar    1  UNL1        0.0710
      3 S         144.0174  144.3688  162.8210 S.2     1  UNL1       -0.0670
      4 C         142.9272  143.6632  162.0700 C.ar    1  UNL1        0.1122
      5 N         142.2177  142.7535  163.0286 N.ar    1  UNL1       -0.2259
      6 C         142.6035  143.8370  160.6157 C.3     1  UNL1        0.1549
      7 C         143.7574  142.9724  161.0291 C.3     1  UNL1        0.1705
      8 O         144.5876  142.2816  159.9882 O.3     1  UNL1       -0.3538
      9 C         144.2639  142.4553  158.5339 C.3     1  UNL1        0.1155
     10 C         145.0941  141.7644  157.4930 C.3     1  UNL1        0.0320
     11 C         143.1100  143.3199  158.1205 C.3     1  UNL1        0.0328
     12 C         142.2798  144.0107  159.1614 C.3     1  UNL1        0.0426
     13 C         141.1258  144.8754  158.7480 C.3     1  UNL1        0.0673
     14 S         140.2956  145.5662  159.7889 S.3     1  UNL1       -0.0807
     15 C         140.6194  145.3925  161.2432 C.2     1  UNL1        0.1483
     16 N         139.7891  146.0834  162.2841 N.pl3   1  UNL1       -0.3380
     17 N         141.7733  144.5279  161.6566 N.2     1  UNL1       -0.2464
     18 H         139.0318  146.6508  162.0127 H       1  UNL1        0.1442
     19 H         140.0016  145.9693  163.2386 H       1  UNL1        0.1442
     20 C         141.1913  142.5089  166.3173 C.2     1  UNL1        0.2680
     21 O         140.2970  143.5755  165.7586 O.2     1  UNL1       -0.2681
     22 N         142.4775  142.1695  165.6241 N.am    1  UNL1       -0.2641
     23 H         143.0645  141.4694  165.9909 H       1  UNL1        0.1566
     24 C         139.1903  140.2772  166.1919 C.3     1  UNL1        0.0328
     25 C         139.7991  140.6657  167.5066 C.ar    1  UNL1        0.0026
     26 C         139.4073  139.9384  168.7587 C.ar    1  UNL1        0.0286
     27 C         140.0161  140.3269  170.0734 C.ar    1  UNL1        0.1589
     28 F         139.6244  139.5996  171.3254 F       1  UNL1       -0.2025
     29 C         141.0167  141.4427  170.1361 C.ar    1  UNL1        0.1285
     30 N         141.4084  142.1700  168.8841 N.ar    1  UNL1       -0.2372
     31 C         140.7996  141.7815  167.5693 C.ar    1  UNL1        0.1310
@<TRIPOS>BOND
     1    24    25    1
     2    25    26   ar
     3    26    27   ar
     4    27    28    1
     5    27    29   ar
     6    29    30   ar
     7    30    31   ar
     8    31    20    1
     9    20    21    2
    10    20    22   am
    11    22     1    1
    12     1     2   ar
    13     2     3   ar
    14     3     4   ar
    15     6     4    1
    16     6     7    1
    17     7     8    1
    18     8     9    1
    19     9    10    1
    20     9    11    1
    21    12    11    1
    22    12    13    1
    23    13    14    1
    24    14    15    1
    25    15    16    1
    26    15    17    2
    27     4     5   ar
    28    31    25   ar
    29     5     1   ar
    30    12     6    1
    31    17     6    1
    32    22    23    1
    33    16    18    1
    34    16    19    1
@<TRIPOS>MOLECULE
*****
 31 34 0 0 0
SMALL
GASTEIGER

@<TRIPOS>ATOM
      1 C         141.2916  143.7212  163.9766 C.ar    1  UNL1        0.1412
      2 C         140.5282  144.9756  163.6706 C.ar    1  UNL1        0.0710
      3 S         140.6940  145.2745  162.2100 S.2     1  UNL1       -0.0670
      4 C         141.5599  144.2048  161.6133 C.ar    1  UNL1        0.1122
      5 N         141.9292  143.2448  162.7051 N.ar    1  UNL1       -0.2259
      6 C         141.9823  144.1115  160.1771 C.3     1  UNL1        0.1549
      7 C         140.8076  144.9622  160.5596 C.3     1  UNL1        0.1705
      8 O         140.0553  145.7196  159.5059 O.3     1  UNL1       -0.3538
      9 C         140.4777  145.6263  158.0696 C.3     1  UNL1        0.1155
     10 C         139.7254  146.3837  157.0159 C.3     1  UNL1        0.0320
     11 C         141.6524  144.7755  157.6871 C.3     1  UNL1        0.0328
     12 C         142.4047  144.0181  158.7408 C.3     1  UNL1        0.0426
     13 C         143.5794  143.1674  158.3582 C.3     1  UNL1        0.0673
     14 S         144.3317  142.4100  159.4120 S.3     1  UNL1       -0.0807
     15 C         143.9093  142.5033  160.8482 C.2     1  UNL1        0.1483
     16 N         144.6617  141.7458  161.9020 N.pl3   1  UNL1       -0.3380
     17 N         142.7346  143.3540  161.2308 N.2     1  UNL1       -0.2464
     18 H         145.4327  141.1875  161.6509 H       1  UNL1        0.1442
     19 H         144.3845  141.8071  162.8447 H       1  UNL1        0.1442
     20 C         142.7066  142.4769  165.7652 C.2     1  UNL1        0.2680
     21 O         143.9077  142.5561  164.8703 O.2     1  UNL1       -0.2681
     22 N         141.3986  143.0594  165.3184 N.am    1  UNL1       -0.2641
     23 H         140.6103  143.0074  165.9058 H       1  UNL1        0.1566
     24 C         141.9377  139.5944  166.0817 C.3     1  UNL1        0.0328
     25 C         142.4290  140.3738  167.2653 C.ar    1  UNL1        0.0026
     26 C         142.5360  139.7121  168.6073 C.ar    1  UNL1        0.0286
     27 C         143.0274  140.4915  169.7909 C.ar    1  UNL1        0.1589
     28 F         143.1343  139.8298  171.1327 F       1  UNL1       -0.2025
     29 C         143.4119  141.9328  169.6326 C.ar    1  UNL1        0.1285
     30 N         143.3050  142.5945  168.2908 N.ar    1  UNL1       -0.2372
     31 C         142.8135  141.8151  167.1071 C.ar    1  UNL1        0.1310
@<TRIPOS>BOND
     1    24    25    1
     2    25    26   ar
     3    26    27   ar
     4    27    28    1
     5    27    29   ar
     6    29    30   ar
     7    30    31   ar
     8    31    20    1
     9    20    21    2
    10    20    22   am
    11    22     1    1
    12     1     2   ar
    13     2     3   ar
    14     3     4   ar
    15     6     4    1
    16     6     7    1
    17     7     8    1
    18     8     9    1
    19     9    10    1
    20     9    11    1
    21    12    11    1
    22    12    13    1
    23    13    14    1
    24    14    15    1
    25    15    16    1
    26    15    17    2
    27     4     5   ar
    28    31    25   ar
    29     5     1   ar
    30    12     6    1
    31    17     6    1
    32    22    23    1
    33    16    18    1
    34    16    19    1
@<TRIPOS>MOLECULE
*****
 31 34 0 0 0
SMALL
GASTEIGER

@<TRIPOS>ATOM
      1 C         139.5886  144.0038  161.4942 C.ar    1  UNL1        0.1412
      2 C         138.4407  143.9940  162.4598 C.ar    1  UNL1        0.0710
      3 S         138.9660  143.5722  163.8001 S.2     1  UNL1       -0.0670
      4 C         140.4385  143.3213  163.6627 C.ar    1  UNL1        0.1122
      5 N         140.8233  143.5881  162.2377 N.ar    1  UNL1       -0.2259
      6 C         141.3638  142.8810  164.7582 C.3     1  UNL1        0.1549
      7 C         139.9292  142.4431  164.7670 C.3     1  UNL1        0.1705
      8 O         139.4199  141.5650  165.8712 O.3     1  UNL1       -0.3538
      9 C         140.3451  141.1247  166.9666 C.3     1  UNL1        0.1155
     10 C         139.8357  140.2465  168.0709 C.3     1  UNL1        0.0320
     11 C         141.7798  141.5625  166.9578 C.3     1  UNL1        0.0328
     12 C         142.2891  142.4406  165.8536 C.3     1  UNL1        0.0426
     13 C         143.7238  142.8785  165.8448 C.3     1  UNL1        0.0673
     14 S         144.2331  143.7567  164.7405 S.3     1  UNL1       -0.0807
     15 C         143.3079  144.1970  163.6451 C.2     1  UNL1        0.1483
     16 N         143.8173  145.0752  162.5408 N.pl3   1  UNL1       -0.3380
     17 N         141.8732  143.7592  163.6539 N.2     1  UNL1       -0.2464
     18 H         144.7589  145.3626  162.5351 H       1  UNL1        0.1442
     19 H         143.2100  145.3642  161.8219 H       1  UNL1        0.1442
     20 C         140.6416  145.1177  159.3966 C.2     1  UNL1        0.2680
     21 O         141.8425  145.5075  160.2063 O.2     1  UNL1       -0.2681
     22 N         139.5147  144.3659  160.0405 N.am    1  UNL1       -0.2641
     23 H         138.7264  144.1100  159.5090 H       1  UNL1        0.1566
     24 C         142.1954  143.5357  157.3758 C.3     1  UNL1        0.0328
     25 C         141.3445  144.6887  156.9324 C.ar    1  UNL1        0.0026
     26 C         141.2705  145.0507  155.4786 C.ar    1  UNL1        0.0286
     27 C         140.4196  146.2037  155.0352 C.ar    1  UNL1        0.1589
     28 F         140.3455  146.5658  153.5815 F       1  UNL1       -0.2025
     29 C         139.6427  146.9947  156.0455 C.ar    1  UNL1        0.1285
     30 N         139.7167  146.6327  157.4993 N.ar    1  UNL1       -0.2372
     31 C         140.5676  145.4797  157.9428 C.ar    1  UNL1        0.1310
@<TRIPOS>BOND
     1    24    25    1
     2    25    26   ar
     3    26    27   ar
     4    27    28    1
     5    27    29   ar
     6    29    30   ar
     7    30    31   ar
     8    31    20    1
     9    20    21    2
    10    20    22   am
    11    22     1    1
    12     1     2   ar
    13     2     3   ar
    14     3     4   ar
    15     6     4    1
    16     6     7    1
    17     7     8    1
    18     8     9    1
    19     9    10    1
    20     9    11    1
    21    12    11    1
    22    12    13    1
    23    13    14    1
    24    14    15    1
    25    15    16    1
    26    15    17    2
    27     4     5   ar
    28    31    25   ar
    29     5     1   ar
    30    12     6    1
    31    17     6    1
    32    22    23    1
    33    16    18    1
    34    16    19    1
@<TRIPOS>MOLECULE
*****
 31 34 0 0 0
SMALL
GASTEIGER

@<TRIPOS>ATOM
      1 C         142.8290  144.0765  162.4603 C.ar    1  UNL1        0.1412
      2 C         144.1595  143.9087  163.1323 C.ar    1  UNL1        0.0710
      3 S         143.9321  143.2209  164.4458 S.2     1  UNL1       -0.0670
      4 C         142.4609  142.9637  164.5856 C.ar    1  UNL1        0.1122
      5 N         141.7792  143.4924  163.3585 N.ar    1  UNL1       -0.2259
      6 C         141.7893  142.2951  165.7484 C.3     1  UNL1        0.1549
      7 C         143.1289  142.9455  165.9285 C.3     1  UNL1        0.1705
      8 O         143.7970  142.9273  167.2714 O.3     1  UNL1       -0.3538
      9 C         143.1254  142.2587  168.4341 C.3     1  UNL1        0.1155
     10 C         143.7935  142.2405  169.7770 C.3     1  UNL1        0.0320
     11 C         141.7858  141.6083  168.2540 C.3     1  UNL1        0.0328
     12 C         141.1178  141.6265  166.9112 C.3     1  UNL1        0.0426
     13 C         139.7782  140.9761  166.7310 C.3     1  UNL1        0.0673
     14 S         139.1101  140.9943  165.3881 S.3     1  UNL1       -0.0807
     15 C         139.7816  141.6629  164.2254 C.2     1  UNL1        0.1483
     16 N         139.1135  141.6811  162.8824 N.pl3   1  UNL1       -0.3380
     17 N         141.1212  142.3133  164.4055 N.2     1  UNL1       -0.2464
     18 H         138.2343  141.2542  162.7642 H       1  UNL1        0.1442
     19 H         139.5543  142.1199  162.1193 H       1  UNL1        0.1442
     20 C         141.6843  144.0556  160.1281 C.2     1  UNL1        0.2680
     21 O         141.0172  142.7557  160.4671 O.2     1  UNL1       -0.2681
     22 N         142.5903  144.7160  161.1247 N.am    1  UNL1       -0.2641
     23 H         143.0282  145.5692  160.9022 H       1  UNL1        0.1566
     24 C         143.4886  143.4205  157.8169 C.3     1  UNL1        0.0328
     25 C         142.3478  144.3777  157.6369 C.ar    1  UNL1        0.0026
     26 C         142.1090  145.0173  156.3012 C.ar    1  UNL1        0.0286
     27 C         140.9682  145.9744  156.1212 C.ar    1  UNL1        0.1589
     28 F         140.7295  146.6141  154.7856 F       1  UNL1       -0.2025
     29 C         140.0661  146.2920  157.2768 C.ar    1  UNL1        0.1285
     30 N         140.3048  145.6524  158.6124 N.ar    1  UNL1       -0.2372
     31 C         141.4457  144.6952  158.7925 C.ar    1  UNL1        0.1310
@<TRIPOS>BOND
     1    24    25    1
     2    25    26   ar
     3    26    27   ar
     4    27    28    1
     5    27    29   ar
     6    29    30   ar
     7    30    31   ar
     8    31    20    1
     9    20    21    2
    10    20    22   am
    11    22     1    1
    12     1     2   ar
    13     2     3   ar
    14     3     4   ar
    15     6     4    1
    16     6     7    1
    17     7     8    1
    18     8     9    1
    19     9    10    1
    20     9    11    1
    21    12    11    1
    22    12    13    1
    23    13    14    1
    24    14    15    1
    25    15    16    1
    26    15    17    2
    27     4     5   ar
    28    31    25   ar
    29     5     1   ar
    30    12     6    1
    31    17     6    1
    32    22    23    1
    33    16    18    1
    34    16    19    1
@<TRIPOS>MOLECULE
*****
 31 34 0 0 0
SMALL
GASTEIGER

@<TRIPOS>ATOM
      1 C         139.1180  139.5732  163.6441 C.ar    1  UNL1        0.1412
      2 C         138.6310  138.1839  163.3562 C.ar    1  UNL1        0.0710
      3 S         138.8891  137.8932  161.9074 S.2     1  UNL1       -0.0670
      4 C         139.5356  139.1028  161.2999 C.ar    1  UNL1        0.1122
      5 N         139.6770  140.1410  162.3733 N.ar    1  UNL1       -0.2259
      6 C         139.9652  139.2485  159.8702 C.3     1  UNL1        0.1549
      7 C         138.6242  139.7598  160.3062 C.3     1  UNL1        0.1705
      8 O         137.7127  140.4168  159.3125 O.3     1  UNL1       -0.3538
      9 C         138.1423  140.5626  157.8827 C.3     1  UNL1        0.1155
     10 C         137.2308  141.2196  156.8889 C.3     1  UNL1        0.0320
     11 C         139.4834  140.0513  157.4467 C.3     1  UNL1        0.0328
     12 C         140.3948  139.3943  158.4404 C.3     1  UNL1        0.0426
     13 C         141.7359  138.8829  158.0044 C.3     1  UNL1        0.0673
     14 S         142.6474  138.2259  158.9982 S.3     1  UNL1       -0.0807
     15 C         142.2178  138.0802  160.4279 C.2     1  UNL1        0.1483
     16 N         143.1293  137.4231  161.4217 N.pl3   1  UNL1       -0.3380
     17 N         140.8767  138.5915  160.8639 N.2     1  UNL1       -0.2464
     18 H         144.0095  137.0876  161.1355 H       1  UNL1        0.1442
     19 H         142.8473  137.3275  162.3601 H       1  UNL1        0.1442
     20 C         140.0567  139.9423  166.0383 C.2     1  UNL1        0.2680
     21 O         141.1180  138.9142  165.7808 O.2     1  UNL1       -0.2681
     22 N         139.0567  140.2718  164.9700 N.am    1  UNL1       -0.2641
     23 H         138.3600  140.9466  165.1391 H       1  UNL1        0.1566
     24 C         141.1792  142.7091  166.3294 C.3     1  UNL1        0.0328
     25 C         140.5566  142.0244  167.5098 C.ar    1  UNL1        0.0026
     26 C         140.4951  142.7230  168.8358 C.ar    1  UNL1        0.0286
     27 C         139.8724  142.0383  170.0162 C.ar    1  UNL1        0.1589
     28 F         139.8110  142.7369  171.3421 F       1  UNL1       -0.2025
     29 C         139.3111  140.6549  169.8707 C.ar    1  UNL1        0.1285
     30 N         139.3725  139.9562  168.5447 N.ar    1  UNL1       -0.2372
     31 C         139.9953  140.6410  167.3643 C.ar    1  UNL1        0.1310
@<TRIPOS>BOND
     1    24    25    1
     2    25    26   ar
     3    26    27   ar
     4    27    28    1
     5    27    29   ar
     6    29    30   ar
     7    30    31   ar
     8    31    20    1
     9    20    21    2
    10    20    22   am
    11    22     1    1
    12     1     2   ar
    13     2     3   ar
    14     3     4   ar
    15     6     4    1
    16     6     7    1
    17     7     8    1
    18     8     9    1
    19     9    10    1
    20     9    11    1
    21    12    11    1
    22    12    13    1
    23    13    14    1
    24    14    15    1
    25    15    16    1
    26    15    17    2
    27     4     5   ar
    28    31    25   ar
    29     5     1   ar
    30    12     6    1
    31    17     6    1
    32    22    23    1
    33    16    18    1
    34    16    19    1
@<TRIPOS>MOLECULE
*****
 31 34 0 0 0
SMALL
GASTEIGER

@<TRIPOS>ATOM
      1 C         139.3711  143.5635  164.1302 C.ar    1  UNL1        0.1412
      2 C         139.4417  145.0068  163.7277 C.ar    1  UNL1        0.0710
      3 S         139.4514  145.0702  162.2291 S.2     1  UNL1       -0.0670
      4 C         139.3868  143.6660  161.7053 C.ar    1  UNL1        0.1122
      5 N         139.3372  142.7349  162.8803 N.ar    1  UNL1       -0.2259
      6 C         139.3741  143.2637  160.2603 C.3     1  UNL1        0.1549
      7 C         140.0072  144.5595  160.6725 C.3     1  UNL1        0.1705
      8 O         140.6276  145.4530  159.6397 O.3     1  UNL1       -0.3538
      9 C         140.6149  145.0507  158.1948 C.3     1  UNL1        0.1155
     10 C         141.2353  145.9443  157.1619 C.3     1  UNL1        0.0320
     11 C         139.9818  143.7549  157.7826 C.3     1  UNL1        0.0328
     12 C         139.3614  142.8614  158.8153 C.3     1  UNL1        0.0426
     13 C         138.7283  141.5655  158.4032 C.3     1  UNL1        0.0673
     14 S         138.1079  140.6719  159.4360 S.3     1  UNL1       -0.0807
     15 C         138.1206  141.0743  160.8809 C.2     1  UNL1        0.1483
     16 N         137.5002  140.1807  161.9138 N.pl3   1  UNL1       -0.3380
     17 N         138.7537  142.3701  161.2931 N.2     1  UNL1       -0.2464
     18 H         137.0846  139.3301  161.6432 H       1  UNL1        0.1442
     19 H         137.5085  140.4447  162.8621 H       1  UNL1        0.1442
     20 C         140.6103  142.6005  166.2006 C.2     1  UNL1        0.2680
     21 O         141.9120  142.6831  165.4600 O.2     1  UNL1       -0.2681
     22 N         139.3398  143.0407  165.5357 N.am    1  UNL1       -0.2641
     23 H         138.4855  142.9865  166.0219 H       1  UNL1        0.1566
     24 C         139.9023  139.7316  166.7186 C.3     1  UNL1        0.0328
     25 C         140.2250  140.6433  167.8652 C.ar    1  UNL1        0.0026
     26 C         140.1937  140.1205  169.2709 C.ar    1  UNL1        0.0286
     27 C         140.5164  141.0322  170.4175 C.ar    1  UNL1        0.1589
     28 F         140.4851  140.5095  171.8231 F       1  UNL1       -0.2025
     29 C         140.8704  142.4666  170.1585 C.ar    1  UNL1        0.1285
     30 N         140.9017  142.9894  168.7529 N.ar    1  UNL1       -0.2372
     31 C         140.5790  142.0777  167.6062 C.ar    1  UNL1        0.1310
@<TRIPOS>BOND
     1    24    25    1
     2    25    26   ar
     3    26    27   ar
     4    27    28    1
     5    27    29   ar
     6    29    30   ar
     7    30    31   ar
     8    31    20    1
     9    20    21    2
    10    20    22   am
    11    22     1    1
    12     1     2   ar
    13     2     3   ar
    14     3     4   ar
    15     6     4    1
    16     6     7    1
    17     7     8    1
    18     8     9    1
    19     9    10    1
    20     9    11    1
    21    12    11    1
    22    12    13    1
    23    13    14    1
    24    14    15    1
    25    15    16    1
    26    15    17    2
    27     4     5   ar
    28    31    25   ar
    29     5     1   ar
    30    12     6    1
    31    17     6    1
    32    22    23    1
    33    16    18    1
    34    16    19    1
@<TRIPOS>MOLECULE
*****
 31 34 0 0 0
SMALL
GASTEIGER

@<TRIPOS>ATOM
      1 C         144.3634  142.2269  161.1259 C.ar    1  UNL1        0.1412
      2 C         145.0698  142.2131  162.4491 C.ar    1  UNL1        0.0710
      3 S         144.1159  142.7214  163.4892 S.2     1  UNL1       -0.0670
      4 C         142.8199  143.0494  162.8087 C.ar    1  UNL1        0.1122
      5 N         142.9729  142.7438  161.3482 N.ar    1  UNL1       -0.2259
      6 C         141.5874  143.5885  163.4723 C.3     1  UNL1        0.1549
      7 C         142.4535  142.5968  164.1910 C.3     1  UNL1        0.1705
      8 O         142.0871  142.1442  165.5733 O.3     1  UNL1       -0.3538
      9 C         140.8546  142.6832  166.2369 C.3     1  UNL1        0.1155
     10 C         140.4881  142.2306  167.6193 C.3     1  UNL1        0.0320
     11 C         139.9885  143.6749  165.5183 C.3     1  UNL1        0.0328
     12 C         140.3549  144.1275  164.1360 C.3     1  UNL1        0.0426
     13 C         139.4889  145.1192  163.4172 C.3     1  UNL1        0.0673
     14 S         139.8553  145.5718  162.0349 S.3     1  UNL1       -0.0807
     15 C         141.0878  145.0328  161.3713 C.2     1  UNL1        0.1483
     16 N         141.4542  145.4855  159.9889 N.pl3   1  UNL1       -0.3380
     17 N         141.9539  144.0411  162.0900 N.2     1  UNL1       -0.2464
     18 H         140.8858  146.1363  159.5172 H       1  UNL1        0.1442
     19 H         142.2631  145.1317  159.5533 H       1  UNL1        0.1442
     20 C         144.6124  142.5578  158.5611 C.2     1  UNL1        0.2680
     21 O         143.6975  143.7447  158.6254 O.2     1  UNL1       -0.2681
     22 N         144.9453  141.7989  159.8113 N.am    1  UNL1       -0.2641
     23 H         145.5458  141.0199  159.7691 H       1  UNL1        0.1566
     24 C         147.4620  143.2189  157.8958 C.3     1  UNL1        0.0328
     25 C         146.6192  142.4603  156.9139 C.ar    1  UNL1        0.0026
     26 C         147.2011  142.0323  155.5992 C.ar    1  UNL1        0.0286
     27 C         146.3583  141.2737  154.6173 C.ar    1  UNL1        0.1589
     28 F         146.9401  140.8457  153.3028 F       1  UNL1       -0.2025
     29 C         144.9334  140.9432  154.9500 C.ar    1  UNL1        0.1285
     30 N         144.3514  141.3712  156.2645 N.ar    1  UNL1       -0.2372
     31 C         145.1943  142.1298  157.2465 C.ar    1  UNL1        0.1310
@<TRIPOS>BOND
     1    24    25    1
     2    25    26   ar
     3    26    27   ar
     4    27    28    1
     5    27    29   ar
     6    29    30   ar
     7    30    31   ar
     8    31    20    1
     9    20    21    2
    10    20    22   am
    11    22     1    1
    12     1     2   ar
    13     2     3   ar
    14     3     4   ar
    15     6     4    1
    16     6     7    1
    17     7     8    1
    18     8     9    1
    19     9    10    1
    20     9    11    1
    21    12    11    1
    22    12    13    1
    23    13    14    1
    24    14    15    1
    25    15    16    1
    26    15    17    2
    27     4     5   ar
    28    31    25   ar
    29     5     1   ar
    30    12     6    1
    31    17     6    1
    32    22    23    1
    33    16    18    1
    34    16    19    1
@<TRIPOS>MOLECULE
*****
 31 34 0 0 0
SMALL
GASTEIGER

@<TRIPOS>ATOM
      1 C         139.0002  139.3384  161.1773 C.ar    1  UNL1        0.1412
      2 C         137.6253  139.8374  161.5102 C.ar    1  UNL1        0.0710
      3 S         137.7312  140.7131  162.7235 S.2     1  UNL1       -0.0670
      4 C         139.1715  140.7553  163.1404 C.ar    1  UNL1        0.1122
      5 N         139.9557  139.9057  162.1848 N.ar    1  UNL1       -0.2259
      6 C         139.7295  141.5140  164.3079 C.3     1  UNL1        0.1549
      7 C         140.0765  140.0670  164.1187 C.3     1  UNL1        0.1705
      8 O         140.9814  139.3787  165.0971 O.3     1  UNL1       -0.3538
      9 C         141.5395  140.1373  166.2646 C.3     1  UNL1        0.1155
     10 C         142.4445  139.4489  167.2429 C.3     1  UNL1        0.0320
     11 C         141.1926  141.5843  166.4537 C.3     1  UNL1        0.0328
     12 C         140.2876  142.2726  165.4754 C.3     1  UNL1        0.0426
     13 C         139.9406  143.7197  165.6645 C.3     1  UNL1        0.0673
     14 S         139.0356  144.4080  164.6862 S.3     1  UNL1       -0.0807
     15 C         138.4776  143.6494  163.5187 C.2     1  UNL1        0.1483
     16 N         137.5726  144.3378  162.5403 N.pl3   1  UNL1       -0.3380
     17 N         138.8245  142.2024  163.3295 N.2     1  UNL1       -0.2464
     18 H         137.3449  145.2875  162.6645 H       1  UNL1        0.1442
     19 H         137.2063  143.8399  161.7741 H       1  UNL1        0.1442
     20 C         139.8417  139.0106  158.7413 C.2     1  UNL1        0.2680
     21 O         139.9700  140.4969  158.5856 O.2     1  UNL1       -0.2681
     22 N         139.3568  138.4313  160.0372 N.am    1  UNL1       -0.2641
     23 H         139.2725  137.4558  160.1394 H       1  UNL1        0.1566
     24 C         142.6526  138.0041  158.4477 C.3     1  UNL1        0.0328
     25 C         141.6037  137.6002  157.4544 C.ar    1  UNL1        0.0026
     26 C         141.9602  136.6930  156.3141 C.ar    1  UNL1        0.0286
     27 C         140.9114  136.2892  155.3208 C.ar    1  UNL1        0.1589
     28 F         141.2679  135.3821  154.1807 F       1  UNL1       -0.2025
     29 C         139.5060  136.7924  155.4676 C.ar    1  UNL1        0.1285
     30 N         139.1494  137.6995  156.6078 N.ar    1  UNL1       -0.2372
     31 C         140.1983  138.1035  157.6012 C.ar    1  UNL1        0.1310
@<TRIPOS>BOND
     1    24    25    1
     2    25    26   ar
     3    26    27   ar
     4    27    28    1
     5    27    29   ar
     6    29    30   ar
     7    30    31   ar
     8    31    20    1
     9    20    21    2
    10    20    22   am
    11    22     1    1
    12     1     2   ar
    13     2     3   ar
    14     3     4   ar
    15     6     4    1
    16     6     7    1
    17     7     8    1
    18     8     9    1
    19     9    10    1
    20     9    11    1
    21    12    11    1
    22    12    13    1
    23    13    14    1
    24    14    15    1
    25    15    16    1
    26    15    17    2
    27     4     5   ar
    28    31    25   ar
    29     5     1   ar
    30    12     6    1
    31    17     6    1
    32    22    23    1
    33    16    18    1
    34    16    19    1
