@<TRIPOS>MOLECULE
*****
 33 36 0 0 0
SMALL
GASTEIGER

@<TRIPOS>ATOM
      1 C         141.0836  138.2429  155.9730 C.2     1  UNL1        0.2383
      2 O         139.7410  138.5030  155.3567 O.2     1  UNL1       -0.2735
      3 N         141.2300  138.2100  157.4655 N.am    1  UNL1       -0.2695
      4 C         142.5726  137.9499  158.0818 C.3     1  UNL1        0.1184
      5 C         142.7191  137.9170  159.5742 C.3     1  UNL1        0.1299
      6 N         141.5230  138.1443  160.4504 N.ar    1  UNL1       -0.3005
      7 C         140.1805  138.4044  159.8341 C.ar    1  UNL1        0.1416
      8 N         139.1892  138.5916  160.9443 N.ar    1  UNL1       -0.2279
      9 C         139.9191  138.4471  162.2467 C.ar    1  UNL1        0.1125
     10 C         141.3615  138.1707  161.9414 C.ar    1  UNL1        0.1318
     11 C         140.0340  138.4373  158.3417 C.3     1  UNL1        0.1578
     12 C         139.3131  138.5593  163.6143 C.ar    1  UNL1        0.0205
     13 C         139.0833  137.3258  164.4363 C.ar    1  UNL1        0.0039
     14 C         138.4774  137.4380  165.8038 C.ar    1  UNL1        0.0297
     15 C         138.1012  138.7837  166.3494 C.ar    1  UNL1        0.1401
     16 F         137.4952  138.8959  167.7170 F       1  UNL1       -0.2042
     17 C         138.3311  140.0172  165.5274 C.ar    1  UNL1        0.0297
     18 C         138.9370  139.9050  164.1598 C.ar    1  UNL1        0.0039
     19 C         141.9951  136.5429  155.0904 C.3     1  UNL1        0.0249
     20 C         142.2796  138.0156  155.0968 C.3     1  UNL1        0.1089
     21 C         142.5642  139.4884  155.1033 C.3     1  UNL1        0.0249
     22 N         143.4757  137.7883  154.2206 N.3     1  UNL1       -0.3164
     23 H         143.9293  138.6810  154.0261 H       1  UNL1        0.1192
     24 H         143.1785  137.3598  153.3440 H       1  UNL1        0.1192
     25 N         142.4511  137.9579  162.9501 N.pl3   1  UNL1       -0.2980
     26 H         143.0777  137.2057  162.8466 H       1  UNL1        0.1536
     27 C         142.5860  138.8913  164.1166 C.ar    1  UNL1        0.0495
     28 C         142.5556  138.3521  165.5160 C.ar    1  UNL1        0.0169
     29 C         142.6905  139.2856  166.6825 C.ar    1  UNL1        0.0309
     30 C         142.8559  140.7581  166.4495 C.ar    1  UNL1        0.1402
     31 F         142.9908  141.6914  167.6160 F       1  UNL1       -0.2042
     32 C         142.8863  141.2973  165.0501 C.ar    1  UNL1        0.0309
     33 C         142.7514  140.3639  163.8837 C.ar    1  UNL1        0.0169
@<TRIPOS>BOND
     1    19    20    1
     2    20    21    1
     3    20    22    1
     4    20     1    1
     5     1     2    2
     6     1     3   am
     7     3     4    1
     8     4     5    1
     9     5     6    1
    10     6     7   ar
    11     7     8   ar
    12     8     9   ar
    13     9    12    1
    14    12    13   ar
    15    13    14   ar
    16    14    15   ar
    17    15    16    1
    18    15    17   ar
    19    17    18   ar
    20     9    10   ar
    21    10    25    1
    22    25    27    1
    23    27    28   ar
    24    28    29   ar
    25    29    30   ar
    26    30    31    1
    27    30    32   ar
    28    32    33   ar
    29     7    11    1
    30    11     3    1
    31    10     6   ar
    32    33    27   ar
    33    18    12   ar
    34    22    23    1
    35    22    24    1
    36    25    26    1
@<TRIPOS>MOLECULE
*****
 33 36 0 0 0
SMALL
GASTEIGER

@<TRIPOS>ATOM
      1 C         141.7056  144.0153  159.3834 C.2     1  UNL1        0.2383
      2 O         141.7804  145.5134  159.3859 O.2     1  UNL1       -0.2735
      3 N         141.7184  143.2616  160.6803 N.am    1  UNL1       -0.2695
      4 C         141.6436  141.7635  160.6778 C.3     1  UNL1        0.1184
      5 C         141.6564  141.0098  161.9746 C.3     1  UNL1        0.1299
      6 N         141.7439  141.7542  163.2739 N.ar    1  UNL1       -0.3005
      7 C         141.8187  143.2523  163.2764 C.ar    1  UNL1        0.1416
      8 N         141.8969  143.7102  164.7027 N.ar    1  UNL1       -0.2279
      9 C         141.8705  142.4950  165.5817 C.ar    1  UNL1        0.1125
     10 C         141.7759  141.2862  164.6987 C.ar    1  UNL1        0.1318
     11 C         141.8059  144.0060  161.9795 C.3     1  UNL1        0.1578
     12 C         141.9284  142.4897  167.0806 C.ar    1  UNL1        0.0205
     13 C         143.2021  142.1185  167.7806 C.ar    1  UNL1        0.0039
     14 C         143.2601  142.1131  169.2794 C.ar    1  UNL1        0.0297
     15 C         142.0444  142.4789  170.0783 C.ar    1  UNL1        0.1401
     16 F         142.1024  142.4735  171.5772 F       1  UNL1       -0.2042
     17 C         140.7707  142.8500  169.3783 C.ar    1  UNL1        0.0297
     18 C         140.7127  142.8554  167.8795 C.ar    1  UNL1        0.0039
     19 C         140.1206  143.3230  158.1552 C.3     1  UNL1        0.0249
     20 C         141.6180  143.2709  158.0841 C.3     1  UNL1        0.1089
     21 C         143.1154  143.2187  158.0131 C.3     1  UNL1        0.0249
     22 N         141.5304  142.5264  156.7848 N.3     1  UNL1       -0.3164
     23 H         142.4705  142.3242  156.4447 H       1  UNL1        0.1192
     24 H         141.0361  143.0969  156.0988 H       1  UNL1        0.1192
     25 N         141.7227  139.8597  165.1595 N.pl3   1  UNL1       -0.2980
     26 H         142.5298  139.2976  165.1151 H       1  UNL1        0.1536
     27 C         140.4399  139.2896  165.6880 C.ar    1  UNL1        0.0495
     28 C         139.8308  139.8474  166.9401 C.ar    1  UNL1        0.0169
     29 C         138.5479  139.2772  167.4686 C.ar    1  UNL1        0.0309
     30 C         137.8742  138.1492  166.7449 C.ar    1  UNL1        0.1402
     31 F         136.5914  137.5791  167.2735 F       1  UNL1       -0.2042
     32 C         138.4833  137.5914  165.4928 C.ar    1  UNL1        0.0309
     33 C         139.7661  138.1615  164.9644 C.ar    1  UNL1        0.0169
@<TRIPOS>BOND
     1    19    20    1
     2    20    21    1
     3    20    22    1
     4    20     1    1
     5     1     2    2
     6     1     3   am
     7     3     4    1
     8     4     5    1
     9     5     6    1
    10     6     7   ar
    11     7     8   ar
    12     8     9   ar
    13     9    12    1
    14    12    13   ar
    15    13    14   ar
    16    14    15   ar
    17    15    16    1
    18    15    17   ar
    19    17    18   ar
    20     9    10   ar
    21    10    25    1
    22    25    27    1
    23    27    28   ar
    24    28    29   ar
    25    29    30   ar
    26    30    31    1
    27    30    32   ar
    28    32    33   ar
    29     7    11    1
    30    11     3    1
    31    10     6   ar
    32    33    27   ar
    33    18    12   ar
    34    22    23    1
    35    22    24    1
    36    25    26    1
@<TRIPOS>MOLECULE
*****
 33 36 0 0 0
SMALL
GASTEIGER

@<TRIPOS>ATOM
      1 C         142.1937  140.7098  169.8319 C.2     1  UNL1        0.2383
      2 O         143.4380  140.0043  170.2834 O.2     1  UNL1       -0.2735
      3 N         141.8230  140.7204  168.3785 N.am    1  UNL1       -0.2695
      4 C         140.5787  141.4259  167.9270 C.3     1  UNL1        0.1184
      5 C         140.2080  141.4366  166.4735 C.3     1  UNL1        0.1299
      6 N         141.0816  140.7418  165.4716 N.ar    1  UNL1       -0.3005
      7 C         142.3259  140.0363  165.9231 C.ar    1  UNL1        0.1416
      8 N         142.9867  139.4426  164.7143 N.ar    1  UNL1       -0.2279
      9 C         142.1507  139.7812  163.5158 C.ar    1  UNL1        0.1125
     10 C         140.9733  140.5842  163.9838 C.ar    1  UNL1        0.1318
     11 C         142.6966  140.0256  167.3765 C.3     1  UNL1        0.1578
     12 C         142.4411  139.3862  162.0982 C.ar    1  UNL1        0.0205
     13 C         143.0425  140.3814  161.1505 C.ar    1  UNL1        0.0039
     14 C         143.3328  139.9864  159.7329 C.ar    1  UNL1        0.0297
     15 C         143.0219  138.5964  159.2629 C.ar    1  UNL1        0.1401
     16 F         143.3122  138.2014  157.8453 F       1  UNL1       -0.2042
     17 C         142.4205  137.6012  160.2106 C.ar    1  UNL1        0.0297
     18 C         142.1301  137.9961  161.6282 C.ar    1  UNL1        0.0039
     19 C         142.1716  142.6344  170.7235 C.3     1  UNL1        0.0249
     20 C         141.3200  141.4046  170.8338 C.3     1  UNL1        0.1089
     21 C         140.4685  140.1747  170.9442 C.3     1  UNL1        0.0249
     22 N         140.4464  142.0995  171.8358 N.3     1  UNL1       -0.3164
     23 H         139.7024  141.4685  172.1337 H       1  UNL1        0.1192
     24 H         140.0368  142.9313  171.4108 H       1  UNL1        0.1192
     25 N         139.8796  141.1331  163.1164 N.pl3   1  UNL1       -0.2980
     26 H         139.1956  140.5297  162.7459 H       1  UNL1        0.1536
     27 C         139.8280  142.6012  162.8135 C.ar    1  UNL1        0.0495
     28 C         140.9958  143.2724  162.1534 C.ar    1  UNL1        0.0169
     29 C         140.9442  144.7407  161.8505 C.ar    1  UNL1        0.0309
     30 C         139.7247  145.5377  162.2078 C.ar    1  UNL1        0.1402
     31 F         139.6731  147.0059  161.9049 F       1  UNL1       -0.2042
     32 C         138.5569  144.8666  162.8679 C.ar    1  UNL1        0.0309
     33 C         138.6086  143.3984  163.1707 C.ar    1  UNL1        0.0169
@<TRIPOS>BOND
     1    19    20    1
     2    20    21    1
     3    20    22    1
     4    20     1    1
     5     1     2    2
     6     1     3   am
     7     3     4    1
     8     4     5    1
     9     5     6    1
    10     6     7   ar
    11     7     8   ar
    12     8     9   ar
    13     9    12    1
    14    12    13   ar
    15    13    14   ar
    16    14    15   ar
    17    15    16    1
    18    15    17   ar
    19    17    18   ar
    20     9    10   ar
    21    10    25    1
    22    25    27    1
    23    27    28   ar
    24    28    29   ar
    25    29    30   ar
    26    30    31    1
    27    30    32   ar
    28    32    33   ar
    29     7    11    1
    30    11     3    1
    31    10     6   ar
    32    33    27   ar
    33    18    12   ar
    34    22    23    1
    35    22    24    1
    36    25    26    1
@<TRIPOS>MOLECULE
*****
 33 36 0 0 0
SMALL
GASTEIGER

@<TRIPOS>ATOM
      1 C         140.8092  140.5987  169.8795 C.2     1  UNL1        0.2383
      2 O         139.9672  139.4587  170.3710 O.2     1  UNL1       -0.2735
      3 N         140.9808  140.8237  168.4065 N.am    1  UNL1       -0.2695
      4 C         141.8228  141.9637  167.9150 C.3     1  UNL1        0.1184
      5 C         141.9945  142.1887  166.4420 C.3     1  UNL1        0.1299
      6 N         141.3242  141.2738  165.4604 N.ar    1  UNL1       -0.3005
      7 C         140.4822  140.1339  165.9518 C.ar    1  UNL1        0.1416
      8 N         139.9481  139.4027  164.7558 N.ar    1  UNL1       -0.2279
      9 C         140.4601  140.0908  163.5253 C.ar    1  UNL1        0.1125
     10 C         141.3105  141.2472  163.9607 C.ar    1  UNL1        0.1318
     11 C         140.3105  139.9088  167.4249 C.3     1  UNL1        0.1578
     12 C         140.1722  139.6925  162.1080 C.ar    1  UNL1        0.0205
     13 C         138.8376  140.0034  161.4980 C.ar    1  UNL1        0.0039
     14 C         138.5496  139.6051  160.0808 C.ar    1  UNL1        0.0297
     15 C         139.5964  138.8960  159.2736 C.ar    1  UNL1        0.1401
     16 F         139.3085  138.4977  157.8564 F       1  UNL1       -0.2042
     17 C         140.9310  138.5852  159.8836 C.ar    1  UNL1        0.0297
     18 C         141.2189  138.9835  161.3008 C.ar    1  UNL1        0.0039
     19 C         142.6590  140.5887  170.9178 C.3     1  UNL1        0.0249
     20 C         141.4795  141.5136  170.8611 C.3     1  UNL1        0.1089
     21 C         140.3000  142.4385  170.8045 C.3     1  UNL1        0.0249
     22 N         142.1498  142.4285  171.8428 N.3     1  UNL1       -0.3164
     23 H         141.5456  143.2289  172.0290 H       1  UNL1        0.1192
     24 H         143.0351  142.7539  171.4545 H       1  UNL1        0.1192
     25 N         142.0224  142.2083  163.0554 N.pl3   1  UNL1       -0.2980
     26 H         142.9575  142.0407  162.7971 H       1  UNL1        0.1536
     27 C         141.3095  143.4248  162.5436 C.ar    1  UNL1        0.0495
     28 C         140.2363  144.0686  163.3705 C.ar    1  UNL1        0.0169
     29 C         139.5235  145.2852  162.8586 C.ar    1  UNL1        0.0309
     30 C         139.8839  145.8579  161.5199 C.ar    1  UNL1        0.1402
     31 F         139.1711  147.0744  161.0082 F       1  UNL1       -0.2042
     32 C         140.9571  145.2141  160.6931 C.ar    1  UNL1        0.0309
     33 C         141.6699  143.9976  161.2049 C.ar    1  UNL1        0.0169
@<TRIPOS>BOND
     1    19    20    1
     2    20    21    1
     3    20    22    1
     4    20     1    1
     5     1     2    2
     6     1     3   am
     7     3     4    1
     8     4     5    1
     9     5     6    1
    10     6     7   ar
    11     7     8   ar
    12     8     9   ar
    13     9    12    1
    14    12    13   ar
    15    13    14   ar
    16    14    15   ar
    17    15    16    1
    18    15    17   ar
    19    17    18   ar
    20     9    10   ar
    21    10    25    1
    22    25    27    1
    23    27    28   ar
    24    28    29   ar
    25    29    30   ar
    26    30    31    1
    27    30    32   ar
    28    32    33   ar
    29     7    11    1
    30    11     3    1
    31    10     6   ar
    32    33    27   ar
    33    18    12   ar
    34    22    23    1
    35    22    24    1
    36    25    26    1
@<TRIPOS>MOLECULE
*****
 33 36 0 0 0
SMALL
GASTEIGER

@<TRIPOS>ATOM
      1 C         140.2418  141.6527  169.8101 C.2     1  UNL1        0.2383
      2 O         140.4647  142.9576  170.5154 O.2     1  UNL1       -0.2735
      3 N         140.2537  141.5988  168.3111 N.am    1  UNL1       -0.2695
      4 C         140.0308  140.2939  167.6057 C.3     1  UNL1        0.1184
      5 C         140.0428  140.2400  166.1067 C.3     1  UNL1        0.1299
      6 N         140.2776  141.4910  165.3131 N.ar    1  UNL1       -0.3005
      7 C         140.5005  142.7959  166.0185 C.ar    1  UNL1        0.1416
      8 N         140.7049  143.8565  164.9776 N.ar    1  UNL1       -0.2279
      9 C         140.6083  143.2070  163.6289 C.ar    1  UNL1        0.1125
     10 C         140.3443  141.7451  163.8363 C.ar    1  UNL1        0.1318
     11 C         140.4886  142.8498  167.5174 C.3     1  UNL1        0.1578
     12 C         140.7508  143.8982  162.3052 C.ar    1  UNL1        0.0205
     13 C         141.7382  143.3905  161.2965 C.ar    1  UNL1        0.0039
     14 C         141.8807  144.0816  159.9729 C.ar    1  UNL1        0.0297
     15 C         141.0358  145.2803  159.6579 C.ar    1  UNL1        0.1401
     16 F         141.1783  145.9714  158.3342 F       1  UNL1       -0.2042
     17 C         140.0485  145.7880  160.6666 C.ar    1  UNL1        0.0297
     18 C         139.9060  145.0969  161.9902 C.ar    1  UNL1        0.0039
     19 C         138.5447  140.4683  170.2759 C.3     1  UNL1        0.0249
     20 C         140.0069  140.4018  170.6037 C.3     1  UNL1        0.1089
     21 C         141.4691  140.3353  170.9315 C.3     1  UNL1        0.0249
     22 N         139.7720  139.1507  171.3974 N.3     1  UNL1       -0.3164
     23 H         140.6562  138.8245  171.7874 H       1  UNL1        0.1192
     24 H         139.3823  138.4305  170.7893 H       1  UNL1        0.1192
     25 N         140.1763  140.7176  162.7565 N.pl3   1  UNL1       -0.2980
     26 H         139.3186  140.6408  162.2792 H       1  UNL1        0.1536
     27 C         141.3150  139.8072  162.4037 C.ar    1  UNL1        0.0495
     28 C         141.0892  138.6466  161.4807 C.ar    1  UNL1        0.0169
     29 C         142.2280  137.7362  161.1280 C.ar    1  UNL1        0.0309
     30 C         143.5926  137.9864  161.6983 C.ar    1  UNL1        0.1402
     31 F         144.7313  137.0760  161.3456 F       1  UNL1       -0.2042
     32 C         143.8184  139.1470  162.6214 C.ar    1  UNL1        0.0309
     33 C         142.6796  140.0574  162.9740 C.ar    1  UNL1        0.0169
@<TRIPOS>BOND
     1    19    20    1
     2    20    21    1
     3    20    22    1
     4    20     1    1
     5     1     2    2
     6     1     3   am
     7     3     4    1
     8     4     5    1
     9     5     6    1
    10     6     7   ar
    11     7     8   ar
    12     8     9   ar
    13     9    12    1
    14    12    13   ar
    15    13    14   ar
    16    14    15   ar
    17    15    16    1
    18    15    17   ar
    19    17    18   ar
    20     9    10   ar
    21    10    25    1
    22    25    27    1
    23    27    28   ar
    24    28    29   ar
    25    29    30   ar
    26    30    31    1
    27    30    32   ar
    28    32    33   ar
    29     7    11    1
    30    11     3    1
    31    10     6   ar
    32    33    27   ar
    33    18    12   ar
    34    22    23    1
    35    22    24    1
    36    25    26    1
@<TRIPOS>MOLECULE
*****
 33 36 0 0 0
SMALL
GASTEIGER

@<TRIPOS>ATOM
      1 C         141.2906  139.8288  169.5479 C.2     1  UNL1        0.2383
      2 O         139.9309  139.6686  170.1607 O.2     1  UNL1       -0.2735
      3 N         141.4277  140.0204  168.0665 N.am    1  UNL1       -0.2695
      4 C         142.7873  140.1807  167.4536 C.3     1  UNL1        0.1184
      5 C         142.9244  140.3722  165.9722 C.3     1  UNL1        0.1299
      6 N         141.7019  140.4036  165.1037 N.ar    1  UNL1       -0.3005
      7 C         140.3422  140.2433  165.7166 C.ar    1  UNL1        0.1416
      8 N         139.3260  140.3162  164.6156 N.ar    1  UNL1       -0.2279
      9 C         140.0576  140.5215  163.3224 C.ar    1  UNL1        0.1125
     10 C         141.5260  140.5755  163.6240 C.ar    1  UNL1        0.1318
     11 C         140.2051  140.0517  167.1980 C.3     1  UNL1        0.1578
     12 C         139.4309  140.6502  161.9656 C.ar    1  UNL1        0.0205
     13 C         139.0407  139.4207  161.2000 C.ar    1  UNL1        0.0039
     14 C         138.4140  139.5493  159.8433 C.ar    1  UNL1        0.0297
     15 C         138.1776  140.9075  159.2522 C.ar    1  UNL1        0.1401
     16 F         137.5509  141.0362  157.8954 F       1  UNL1       -0.2042
     17 C         138.5678  142.1370  160.0177 C.ar    1  UNL1        0.0297
     18 C         139.1945  142.0083  161.3744 C.ar    1  UNL1        0.0039
     19 C         142.7131  138.3489  170.0826 C.3     1  UNL1        0.0249
     20 C         142.5131  139.7975  170.4164 C.3     1  UNL1        0.1089
     21 C         142.3131  141.2461  170.7502 C.3     1  UNL1        0.0249
     22 N         143.7357  139.7661  171.2849 N.3     1  UNL1       -0.3164
     23 H         143.8846  140.6877  171.6958 H       1  UNL1        0.1192
     24 H         144.5465  139.5100  170.7216 H       1  UNL1        0.1192
     25 N         142.6255  140.7676  162.6219 N.pl3   1  UNL1       -0.2980
     26 H         143.3006  141.4707  162.7607 H       1  UNL1        0.1536
     27 C         142.6964  139.8888  161.4085 C.ar    1  UNL1        0.0495
     28 C         142.9367  138.4161  161.5620 C.ar    1  UNL1        0.0169
     29 C         143.0076  137.5372  160.3484 C.ar    1  UNL1        0.0309
     30 C         142.8382  138.1310  158.9814 C.ar    1  UNL1        0.1402
     31 F         142.9092  137.2522  157.7680 F       1  UNL1       -0.2042
     32 C         142.5980  139.6037  158.8279 C.ar    1  UNL1        0.0309
     33 C         142.5271  140.4825  160.0414 C.ar    1  UNL1        0.0169
@<TRIPOS>BOND
     1    19    20    1
     2    20    21    1
     3    20    22    1
     4    20     1    1
     5     1     2    2
     6     1     3   am
     7     3     4    1
     8     4     5    1
     9     5     6    1
    10     6     7   ar
    11     7     8   ar
    12     8     9   ar
    13     9    12    1
    14    12    13   ar
    15    13    14   ar
    16    14    15   ar
    17    15    16    1
    18    15    17   ar
    19    17    18   ar
    20     9    10   ar
    21    10    25    1
    22    25    27    1
    23    27    28   ar
    24    28    29   ar
    25    29    30   ar
    26    30    31    1
    27    30    32   ar
    28    32    33   ar
    29     7    11    1
    30    11     3    1
    31    10     6   ar
    32    33    27   ar
    33    18    12   ar
    34    22    23    1
    35    22    24    1
    36    25    26    1
@<TRIPOS>MOLECULE
*****
 33 36 0 0 0
SMALL
GASTEIGER

@<TRIPOS>ATOM
      1 C         142.2788  142.2532  169.4637 C.2     1  UNL1        0.2383
      2 O         143.6552  142.8346  169.5958 O.2     1  UNL1       -0.2735
      3 N         141.8538  141.6177  168.1732 N.am    1  UNL1       -0.2695
      4 C         140.4774  141.0363  168.0411 C.3     1  UNL1        0.1184
      5 C         140.0524  140.4007  166.7506 C.3     1  UNL1        0.1299
      6 N         141.0037  140.3465  165.5922 N.ar    1  UNL1       -0.3005
      7 C         142.3801  140.9279  165.7243 C.ar    1  UNL1        0.1416
      8 N         143.0946  140.7288  164.4204 N.ar    1  UNL1       -0.2279
      9 C         142.1596  140.0244  163.4825 C.ar    1  UNL1        0.1125
     10 C         140.8675  139.7881  164.2067 C.ar    1  UNL1        0.1318
     11 C         142.8051  141.5635  167.0148 C.3     1  UNL1        0.1578
     12 C         142.4635  139.6261  162.0686 C.ar    1  UNL1        0.0205
     13 C         142.8740  138.2172  161.7580 C.ar    1  UNL1        0.0039
     14 C         143.1779  137.8189  160.3442 C.ar    1  UNL1        0.0297
     15 C         143.0713  138.8296  159.2409 C.ar    1  UNL1        0.1401
     16 F         143.3752  138.4313  157.8270 F       1  UNL1       -0.2042
     17 C         142.6608  140.2385  159.5515 C.ar    1  UNL1        0.0297
     18 C         142.3569  140.6367  160.9653 C.ar    1  UNL1        0.0039
     19 C         141.9131  141.0366  171.1625 C.3     1  UNL1        0.0249
     20 C         141.3274  142.3074  170.6221 C.3     1  UNL1        0.1089
     21 C         140.7418  143.5782  170.0817 C.3     1  UNL1        0.0249
     22 N         140.3760  142.3616  171.7806 N.3     1  UNL1       -0.3164
     23 H         139.7849  143.1886  171.6967 H       1  UNL1        0.1192
     24 H         140.9039  142.4079  172.6522 H       1  UNL1        0.1192
     25 N         139.6523  139.1121  163.6442 N.pl3   1  UNL1       -0.2980
     26 H         139.1754  138.4347  164.1760 H       1  UNL1        0.1536
     27 C         139.1638  139.4683  162.2715 C.ar    1  UNL1        0.0495
     28 C         138.5875  140.8282  162.0098 C.ar    1  UNL1        0.0169
     29 C         138.0990  141.1842  160.6369 C.ar    1  UNL1        0.0309
     30 C         138.1868  140.1804  159.5258 C.ar    1  UNL1        0.1402
     31 F         137.6983  140.5365  158.1530 F       1  UNL1       -0.2042
     32 C         138.7631  138.8205  159.7875 C.ar    1  UNL1        0.0309
     33 C         139.2516  138.4644  161.1603 C.ar    1  UNL1        0.0169
@<TRIPOS>BOND
     1    19    20    1
     2    20    21    1
     3    20    22    1
     4    20     1    1
     5     1     2    2
     6     1     3   am
     7     3     4    1
     8     4     5    1
     9     5     6    1
    10     6     7   ar
    11     7     8   ar
    12     8     9   ar
    13     9    12    1
    14    12    13   ar
    15    13    14   ar
    16    14    15   ar
    17    15    16    1
    18    15    17   ar
    19    17    18   ar
    20     9    10   ar
    21    10    25    1
    22    25    27    1
    23    27    28   ar
    24    28    29   ar
    25    29    30   ar
    26    30    31    1
    27    30    32   ar
    28    32    33   ar
    29     7    11    1
    30    11     3    1
    31    10     6   ar
    32    33    27   ar
    33    18    12   ar
    34    22    23    1
    35    22    24    1
    36    25    26    1
@<TRIPOS>MOLECULE
*****
 33 36 0 0 0
SMALL
GASTEIGER

@<TRIPOS>ATOM
      1 C         140.1524  141.9207  169.7393 C.2     1  UNL1        0.2383
      2 O         140.0245  143.2673  170.3875 O.2     1  UNL1       -0.2735
      3 N         140.3383  141.8176  168.2545 N.am    1  UNL1       -0.2695
      4 C         140.4662  140.4709  167.6064 C.3     1  UNL1        0.1184
      5 C         140.6521  140.3678  166.1215 C.3     1  UNL1        0.1299
      6 N         140.7102  141.6114  165.2848 N.ar    1  UNL1       -0.3005
      7 C         140.5823  142.9580  165.9329 C.ar    1  UNL1        0.1416
      8 N         140.6767  144.0005  164.8584 N.ar    1  UNL1       -0.2279
      9 C         140.8629  143.2980  163.5462 C.ar    1  UNL1        0.1125
     10 C         140.8836  141.8215  163.8097 C.ar    1  UNL1        0.1318
     11 C         140.3963  143.0611  167.4178 C.3     1  UNL1        0.1578
     12 C         141.0038  143.9565  162.2058 C.ar    1  UNL1        0.0205
     13 C         142.0426  143.4726  161.2380 C.ar    1  UNL1        0.0039
     14 C         142.1835  144.1310  159.8976 C.ar    1  UNL1        0.0297
     15 C         141.2855  145.2732  159.5250 C.ar    1  UNL1        0.1401
     16 F         141.4264  145.9317  158.1846 F       1  UNL1       -0.2042
     17 C         140.2467  145.7571  160.4929 C.ar    1  UNL1        0.0297
     18 C         140.1058  145.0987  161.8332 C.ar    1  UNL1        0.0039
     19 C         138.6813  140.4434  170.1307 C.3     1  UNL1        0.0249
     20 C         140.0944  140.6771  170.5761 C.3     1  UNL1        0.1089
     21 C         141.5075  140.9109  171.0214 C.3     1  UNL1        0.0249
     22 N         140.0363  139.4335  171.4128 N.3     1  UNL1       -0.3164
     23 H         140.9291  139.3015  171.8881 H       1  UNL1        0.1192
     24 H         139.8475  138.6295  170.8143 H       1  UNL1        0.1192
     25 N         141.0488  140.7442  162.7792 N.pl3   1  UNL1       -0.2980
     26 H         141.9215  140.6087  162.3442 H       1  UNL1        0.1536
     27 C         139.8842  139.8733  162.4112 C.ar    1  UNL1        0.0495
     28 C         139.7348  138.5175  163.0353 C.ar    1  UNL1        0.0169
     29 C         138.5702  137.6466  162.6673 C.ar    1  UNL1        0.0309
     30 C         137.5550  138.1316  161.6752 C.ar    1  UNL1        0.1402
     31 F         136.3905  137.2608  161.3072 F       1  UNL1       -0.2042
     32 C         137.7044  139.4874  161.0511 C.ar    1  UNL1        0.0309
     33 C         138.8690  140.3582  161.4191 C.ar    1  UNL1        0.0169
@<TRIPOS>BOND
     1    19    20    1
     2    20    21    1
     3    20    22    1
     4    20     1    1
     5     1     2    2
     6     1     3   am
     7     3     4    1
     8     4     5    1
     9     5     6    1
    10     6     7   ar
    11     7     8   ar
    12     8     9   ar
    13     9    12    1
    14    12    13   ar
    15    13    14   ar
    16    14    15   ar
    17    15    16    1
    18    15    17   ar
    19    17    18   ar
    20     9    10   ar
    21    10    25    1
    22    25    27    1
    23    27    28   ar
    24    28    29   ar
    25    29    30   ar
    26    30    31    1
    27    30    32   ar
    28    32    33   ar
    29     7    11    1
    30    11     3    1
    31    10     6   ar
    32    33    27   ar
    33    18    12   ar
    34    22    23    1
    35    22    24    1
    36    25    26    1
@<TRIPOS>MOLECULE
*****
 33 36 0 0 0
SMALL
GASTEIGER

@<TRIPOS>ATOM
      1 C         143.1799  141.1390  156.8565 C.2     1  UNL1        0.2383
      2 O         142.3648  140.2930  155.9239 O.2     1  UNL1       -0.2735
      3 N         142.8826  141.1344  158.3268 N.am    1  UNL1       -0.2695
      4 C         143.6977  141.9804  159.2594 C.3     1  UNL1        0.1184
      5 C         143.4004  141.9758  160.7297 C.3     1  UNL1        0.1299
      6 N         142.2881  141.1251  161.2672 N.ar    1  UNL1       -0.3005
      7 C         141.4730  140.2791  160.3346 C.ar    1  UNL1        0.1416
      8 N         140.4470  139.5480  161.1489 N.ar    1  UNL1       -0.2279
      9 C         140.6281  139.9422  162.5848 C.ar    1  UNL1        0.1125
     10 C         141.7659  140.9169  162.6579 C.ar    1  UNL1        0.1318
     11 C         141.7703  140.2837  158.8644 C.3     1  UNL1        0.1578
     12 C         139.8142  139.4484  163.7440 C.ar    1  UNL1        0.0205
     13 C         138.9021  140.3888  164.4746 C.ar    1  UNL1        0.0039
     14 C         138.0882  139.8951  165.6339 C.ar    1  UNL1        0.0297
     15 C         138.1865  138.4610  166.0625 C.ar    1  UNL1        0.1401
     16 F         137.3726  137.9672  167.2217 F       1  UNL1       -0.2042
     17 C         139.0986  137.5207  165.3319 C.ar    1  UNL1        0.0297
     18 C         139.9124  138.0144  164.1726 C.ar    1  UNL1        0.0039
     19 C         145.2629  140.8712  156.5577 C.3     1  UNL1        0.0249
     20 C         144.2923  141.9896  156.3189 C.3     1  UNL1        0.1089
     21 C         143.3216  143.1080  156.0802 C.3     1  UNL1        0.0249
     22 N         145.4047  142.8403  155.7813 N.3     1  UNL1       -0.3164
     23 H         145.0346  143.7501  155.5064 H       1  UNL1        0.1192
     24 H         145.8206  142.3831  154.9699 H       1  UNL1        0.1192
     25 N         142.2896  141.5690  163.9031 N.pl3   1  UNL1       -0.2980
     26 H         142.5196  142.5262  163.8981 H       1  UNL1        0.1536
     27 C         142.4629  140.7626  165.1560 C.ar    1  UNL1        0.0495
     28 C         143.2387  139.4793  165.1207 C.ar    1  UNL1        0.0169
     29 C         143.4120  138.6730  166.3737 C.ar    1  UNL1        0.0309
     30 C         142.8095  139.1500  167.6619 C.ar    1  UNL1        0.1402
     31 F         142.9828  138.3436  168.9148 F       1  UNL1       -0.2042
     32 C         142.0337  140.4333  167.6972 C.ar    1  UNL1        0.0309
     33 C         141.8604  141.2396  166.4442 C.ar    1  UNL1        0.0169
@<TRIPOS>BOND
     1    19    20    1
     2    20    21    1
     3    20    22    1
     4    20     1    1
     5     1     2    2
     6     1     3   am
     7     3     4    1
     8     4     5    1
     9     5     6    1
    10     6     7   ar
    11     7     8   ar
    12     8     9   ar
    13     9    12    1
    14    12    13   ar
    15    13    14   ar
    16    14    15   ar
    17    15    16    1
    18    15    17   ar
    19    17    18   ar
    20     9    10   ar
    21    10    25    1
    22    25    27    1
    23    27    28   ar
    24    28    29   ar
    25    29    30   ar
    26    30    31    1
    27    30    32   ar
    28    32    33   ar
    29     7    11    1
    30    11     3    1
    31    10     6   ar
    32    33    27   ar
    33    18    12   ar
    34    22    23    1
    35    22    24    1
    36    25    26    1
