@<TRIPOS>MOLECULE
*****
 35 38 0 0 0
SMALL
GASTEIGER

@<TRIPOS>ATOM
      1 C         142.3628  143.7651  160.8252 C.ar    1  UNL1        0.0711
      2 C         141.8187  144.5171  159.6469 C.ar    1  UNL1        0.0076
      3 C         142.2919  144.1863  158.2624 C.ar    1  UNL1        0.0194
      4 C         143.3092  143.1034  158.0563 C.ar    1  UNL1        0.0988
      5 N         143.8533  142.3514  159.2347 N.ar    1  UNL1       -0.2436
      6 C         143.3801  142.6823  160.6190 C.ar    1  UNL1        0.0871
      7 C         141.7477  144.9383  157.0841 C.ar    1  UNL1        0.0032
      8 C         140.6082  145.8964  157.2671 C.ar    1  UNL1        0.0115
      9 C         140.0641  146.6484  156.0888 C.ar    1  UNL1        0.0585
     10 CL        138.9246  147.6066  156.2718 Cl      1  UNL1       -0.0822
     11 C         140.6595  146.4423  154.7275 C.ar    1  UNL1        0.0228
     12 C         141.7990  145.4841  154.5445 C.ar    1  UNL1        0.0585
     13 CL        142.3943  145.2780  153.1833 Cl      1  UNL1       -0.0822
     14 C         142.3431  144.7321  155.7229 C.ar    1  UNL1        0.0115
     15 C         143.9243  141.9303  161.7974 C.ar    1  UNL1        0.0370
     16 C         145.1424  142.4355  162.5121 C.ar    1  UNL1        0.0046
     17 C         145.6866  141.6836  163.6904 C.ar    1  UNL1        0.0207
     18 C         145.0126  140.4264  164.1540 C.ar    1  UNL1        0.0989
     19 N         143.7944  139.9211  163.4394 N.ar    1  UNL1       -0.2423
     20 C         143.2502  140.6730  162.2611 C.ar    1  UNL1        0.1003
     21 N         140.7570  143.3243  162.8195 N.am    1  UNL1       -0.2969
     22 C         141.8896  144.0959  162.2096 C.2     1  UNL1        0.2476
     23 O         142.5489  145.1983  162.9842 O.2     1  UNL1       -0.2701
     24 H         140.3243  142.6008  162.3111 H       1  UNL1        0.1501
     25 C         140.2838  143.6551  164.2039 C.3     1  UNL1        0.1167
     26 C         142.4226  141.9543  167.7792 C.ar    1  UNL1        0.1724
     27 C         143.1809  142.2378  166.5165 C.ar    1  UNL1        0.0398
     28 C         142.4680  142.8047  165.3247 C.ar    1  UNL1        0.0007
     29 C         140.9967  143.0882  165.3957 C.ar    1  UNL1        0.0007
     30 C         140.2385  142.8047  166.6584 C.ar    1  UNL1        0.0374
     31 C         140.9514  142.2378  167.8502 C.ar    1  UNL1        0.1721
     32 C         143.8688  142.2988  169.9099 C.3     1  UNL1        0.2526
     33 O         143.1356  141.3874  168.9710 O.3     1  UNL1       -0.4684
     34 O         140.1930  141.9543  169.1130 O.3     1  UNL1       -0.4684
     35 C         139.6262  140.5871  169.3566 C.3     1  UNL1        0.2526
@<TRIPOS>BOND
     1    32    33    1
     2    33    26    1
     3    26    27   ar
     4    27    28   ar
     5    28    29   ar
     6    29    25    1
     7    25    21    1
     8    21    22   am
     9    22    23    2
    10    22     1    1
    11     1     2   ar
    12     2     3   ar
    13     3     7    1
    14     7     8   ar
    15     8     9   ar
    16     9    10    1
    17     9    11   ar
    18    11    12   ar
    19    12    13    1
    20    12    14   ar
    21     3     4   ar
    22     4     5   ar
    23     5     6   ar
    24     6    15    1
    25    15    16   ar
    26    16    17   ar
    27    17    18   ar
    28    18    19   ar
    29    19    20   ar
    30    29    30   ar
    31    30    31   ar
    32    31    34    1
    33    34    35    1
    34    31    26   ar
    35     6     1   ar
    36    20    15   ar
    37    14     7   ar
    38    21    24    1
@<TRIPOS>MOLECULE
*****
 35 38 0 0 0
SMALL
GASTEIGER

@<TRIPOS>ATOM
      1 C         141.4951  138.6146  161.2845 C.ar    1  UNL1        0.0711
      2 C         142.2364  138.0038  160.1324 C.ar    1  UNL1        0.0076
      3 C         142.0188  138.5215  158.7414 C.ar    1  UNL1        0.0194
      4 C         141.0599  139.6500  158.5026 C.ar    1  UNL1        0.0988
      5 N         140.3186  140.2607  159.6548 N.ar    1  UNL1       -0.2436
      6 C         140.5362  139.7430  161.0457 C.ar    1  UNL1        0.0871
      7 C         142.7601  137.9107  157.5893 C.ar    1  UNL1        0.0032
      8 C         142.8335  136.4189  157.4509 C.ar    1  UNL1        0.0115
      9 C         143.5748  135.8081  156.2988 C.ar    1  UNL1        0.0585
     10 CL        143.6482  134.3163  156.1604 Cl      1  UNL1       -0.0822
     11 C         144.2428  136.6892  155.2850 C.ar    1  UNL1        0.0228
     12 C         144.1693  138.1810  155.4234 C.ar    1  UNL1        0.0585
     13 CL        144.8372  139.0620  154.4097 Cl      1  UNL1       -0.0822
     14 C         143.4280  138.7917  156.5756 C.ar    1  UNL1        0.0115
     15 C         139.7949  140.3538  162.1979 C.ar    1  UNL1        0.0370
     16 C         138.5080  139.7442  162.6695 C.ar    1  UNL1        0.0046
     17 C         137.7667  140.3549  163.8217 C.ar    1  UNL1        0.0207
     18 C         138.3122  141.5752  164.5021 C.ar    1  UNL1        0.0989
     19 N         139.5990  142.1849  164.0305 N.ar    1  UNL1       -0.2423
     20 C         140.3404  141.5742  162.8784 C.ar    1  UNL1        0.1003
     21 N         142.6718  138.7945  163.5938 N.am    1  UNL1       -0.2969
     22 C         141.7127  138.0969  162.6754 C.2     1  UNL1        0.2476
     23 O         140.9712  136.8816  163.1479 O.2     1  UNL1       -0.2701
     24 H         143.1585  139.5921  163.2837 H       1  UNL1        0.1501
     25 C         142.8894  138.2768  164.9847 C.3     1  UNL1        0.1167
     26 C         140.7657  140.1952  168.4574 C.ar    1  UNL1        0.1724
     27 C         140.0123  139.8789  167.1996 C.ar    1  UNL1        0.0398
     28 C         140.7202  139.2394  166.0420 C.ar    1  UNL1        0.0007
     29 C         142.1815  138.9163  166.1423 C.ar    1  UNL1        0.0007
     30 C         142.9349  139.2326  167.4002 C.ar    1  UNL1        0.0374
     31 C         142.2270  139.8721  168.5577 C.ar    1  UNL1        0.1721
     32 C         140.0648  142.3269  169.7669 C.3     1  UNL1        0.2526
     33 O         140.0578  140.8346  169.6150 O.3     1  UNL1       -0.4684
     34 O         142.9805  140.1884  169.8157 O.3     1  UNL1       -0.4684
     35 C         143.5887  141.5465  170.0042 C.3     1  UNL1        0.2526
@<TRIPOS>BOND
     1    32    33    1
     2    33    26    1
     3    26    27   ar
     4    27    28   ar
     5    28    29   ar
     6    29    25    1
     7    25    21    1
     8    21    22   am
     9    22    23    2
    10    22     1    1
    11     1     2   ar
    12     2     3   ar
    13     3     7    1
    14     7     8   ar
    15     8     9   ar
    16     9    10    1
    17     9    11   ar
    18    11    12   ar
    19    12    13    1
    20    12    14   ar
    21     3     4   ar
    22     4     5   ar
    23     5     6   ar
    24     6    15    1
    25    15    16   ar
    26    16    17   ar
    27    17    18   ar
    28    18    19   ar
    29    19    20   ar
    30    29    30   ar
    31    30    31   ar
    32    31    34    1
    33    34    35    1
    34    31    26   ar
    35     6     1   ar
    36    20    15   ar
    37    14     7   ar
    38    21    24    1
@<TRIPOS>MOLECULE
*****
 35 38 0 0 0
SMALL
GASTEIGER

@<TRIPOS>ATOM
      1 C         138.4747  140.9871  160.8676 C.ar    1  UNL1        0.0711
      2 C         137.8902  141.6225  159.6410 C.ar    1  UNL1        0.0076
      3 C         138.1011  140.9917  158.2965 C.ar    1  UNL1        0.0194
      4 C         138.8965  139.7254  158.1787 C.ar    1  UNL1        0.0988
      5 N         139.4810  139.0900  159.4054 N.ar    1  UNL1       -0.2436
      6 C         139.2701  139.7208  160.7498 C.ar    1  UNL1        0.0871
      7 C         137.5167  141.6271  157.0699 C.ar    1  UNL1        0.0032
      8 C         137.8698  143.0417  156.7172 C.ar    1  UNL1        0.0115
      9 C         137.2854  143.6771  155.4906 C.ar    1  UNL1        0.0585
     10 CL        137.6385  145.0916  155.1380 Cl      1  UNL1       -0.0822
     11 C         136.3477  142.8980  154.6166 C.ar    1  UNL1        0.0228
     12 C         135.9946  141.4834  154.9692 C.ar    1  UNL1        0.0585
     13 CL        135.0570  140.7043  154.0953 Cl      1  UNL1       -0.0822
     14 C         136.5791  140.8480  156.1959 C.ar    1  UNL1        0.0115
     15 C         139.8545  139.0854  161.9765 C.ar    1  UNL1        0.0370
     16 C         139.0164  138.1699  162.8187 C.ar    1  UNL1        0.0046
     17 C         139.6007  137.5344  164.0453 C.ar    1  UNL1        0.0207
     18 C         141.0233  137.8145  164.4297 C.ar    1  UNL1        0.0989
     19 N         141.8615  138.7301  163.5875 N.ar    1  UNL1       -0.2423
     20 C         141.2771  139.3655  162.3609 C.ar    1  UNL1        0.1003
     21 N         139.3745  142.3893  162.8612 N.am    1  UNL1       -0.2969
     22 C         138.2638  141.6180  162.2121 C.2     1  UNL1        0.2476
     23 O         136.9421  141.4775  162.9074 O.2     1  UNL1       -0.2701
     24 H         140.2419  142.4815  162.4048 H       1  UNL1        0.1501
     25 C         139.1636  143.0201  164.2056 C.3     1  UNL1        0.1167
     26 C         140.2114  140.7485  167.9462 C.ar    1  UNL1        0.1724
     27 C         139.4415  140.0738  166.8498 C.ar    1  UNL1        0.0398
     28 C         139.0922  140.8310  165.6030 C.ar    1  UNL1        0.0007
     29 C         139.5129  142.2629  165.4525 C.ar    1  UNL1        0.0007
     30 C         140.2828  142.9376  166.5488 C.ar    1  UNL1        0.0374
     31 C         140.6320  142.1804  167.7957 C.ar    1  UNL1        0.1721
     32 C         139.7251  140.1539  170.4281 C.3     1  UNL1        0.2526
     33 O         140.5606  139.9913  169.1931 O.3     1  UNL1       -0.4684
     34 O         141.4020  142.8551  168.8921 O.3     1  UNL1       -0.4684
     35 C         140.6984  143.7725  169.8477 C.3     1  UNL1        0.2526
@<TRIPOS>BOND
     1    32    33    1
     2    33    26    1
     3    26    27   ar
     4    27    28   ar
     5    28    29   ar
     6    29    25    1
     7    25    21    1
     8    21    22   am
     9    22    23    2
    10    22     1    1
    11     1     2   ar
    12     2     3   ar
    13     3     7    1
    14     7     8   ar
    15     8     9   ar
    16     9    10    1
    17     9    11   ar
    18    11    12   ar
    19    12    13    1
    20    12    14   ar
    21     3     4   ar
    22     4     5   ar
    23     5     6   ar
    24     6    15    1
    25    15    16   ar
    26    16    17   ar
    27    17    18   ar
    28    18    19   ar
    29    19    20   ar
    30    29    30   ar
    31    30    31   ar
    32    31    34    1
    33    34    35    1
    34    31    26   ar
    35     6     1   ar
    36    20    15   ar
    37    14     7   ar
    38    21    24    1
@<TRIPOS>MOLECULE
*****
 35 38 0 0 0
SMALL
GASTEIGER

@<TRIPOS>ATOM
      1 C         140.6531  144.0555  161.3481 C.ar    1  UNL1        0.0711
      2 C         139.9107  144.4207  160.0970 C.ar    1  UNL1        0.0076
      3 C         140.6465  144.5365  158.7950 C.ar    1  UNL1        0.0194
      4 C         142.1247  144.2871  158.7441 C.ar    1  UNL1        0.0988
      5 N         142.8671  143.9218  159.9954 N.ar    1  UNL1       -0.2436
      6 C         142.1313  143.8060  161.2973 C.ar    1  UNL1        0.0871
      7 C         139.9041  144.9018  157.5438 C.ar    1  UNL1        0.0032
      8 C         139.1193  143.8581  156.8057 C.ar    1  UNL1        0.0115
      9 C         138.3769  144.2233  155.5545 C.ar    1  UNL1        0.0585
     10 CL        137.5921  143.1797  154.8164 Cl      1  UNL1       -0.0822
     11 C         138.4192  145.6323  155.0415 C.ar    1  UNL1        0.0228
     12 C         139.2040  146.6760  155.7797 C.ar    1  UNL1        0.0585
     13 CL        139.2463  148.0849  155.2668 Cl      1  UNL1       -0.0822
     14 C         139.9464  146.3107  157.0309 C.ar    1  UNL1        0.0115
     15 C         142.8738  143.4408  162.5485 C.ar    1  UNL1        0.0370
     16 C         143.4062  144.5181  163.4462 C.ar    1  UNL1        0.0046
     17 C         144.1486  144.1529  164.6974 C.ar    1  UNL1        0.0207
     18 C         144.3585  142.7104  165.0508 C.ar    1  UNL1        0.0989
     19 N         143.8261  141.6331  164.1532 N.ar    1  UNL1       -0.2423
     20 C         143.0837  141.9983  162.9020 C.ar    1  UNL1        0.1003
     21 N         139.2888  142.6356  163.0430 N.am    1  UNL1       -0.2969
     22 C         139.9173  143.9397  162.6502 C.2     1  UNL1        0.2476
     23 O         139.8100  145.1279  163.5593 O.2     1  UNL1       -0.2701
     24 H         139.3592  141.8557  162.4463 H       1  UNL1        0.1501
     25 C         138.5530  142.5197  164.3450 C.3     1  UNL1        0.1167
     26 C         140.4911  140.4682  167.8500 C.ar    1  UNL1        0.1724
     27 C         139.5432  139.7110  166.9680 C.ar    1  UNL1        0.0398
     28 C         138.8972  140.3948  165.7996 C.ar    1  UNL1        0.0007
     29 C         139.1990  141.8359  165.5133 C.ar    1  UNL1        0.0007
     30 C         140.1469  142.5932  166.3953 C.ar    1  UNL1        0.0374
     31 C         140.7929  141.9094  167.5637 C.ar    1  UNL1        0.1721
     32 C         140.5289  139.8990  170.3846 C.3     1  UNL1        0.2526
     33 O         141.1371  139.7844  169.0183 O.3     1  UNL1       -0.4684
     34 O         141.7409  142.6667  168.4457 O.3     1  UNL1       -0.4684
     35 C         141.2348  143.3402  169.6868 C.3     1  UNL1        0.2526
@<TRIPOS>BOND
     1    32    33    1
     2    33    26    1
     3    26    27   ar
     4    27    28   ar
     5    28    29   ar
     6    29    25    1
     7    25    21    1
     8    21    22   am
     9    22    23    2
    10    22     1    1
    11     1     2   ar
    12     2     3   ar
    13     3     7    1
    14     7     8   ar
    15     8     9   ar
    16     9    10    1
    17     9    11   ar
    18    11    12   ar
    19    12    13    1
    20    12    14   ar
    21     3     4   ar
    22     4     5   ar
    23     5     6   ar
    24     6    15    1
    25    15    16   ar
    26    16    17   ar
    27    17    18   ar
    28    18    19   ar
    29    19    20   ar
    30    29    30   ar
    31    30    31   ar
    32    31    34    1
    33    34    35    1
    34    31    26   ar
    35     6     1   ar
    36    20    15   ar
    37    14     7   ar
    38    21    24    1
@<TRIPOS>MOLECULE
*****
 35 38 0 0 0
SMALL
GASTEIGER

@<TRIPOS>ATOM
      1 C         141.1507  142.3010  160.6157 C.ar    1  UNL1        0.0711
      2 C         140.1985  142.6851  159.5222 C.ar    1  UNL1        0.0076
      3 C         140.6069  143.6973  158.4932 C.ar    1  UNL1        0.0194
      4 C         141.9675  144.3254  158.5578 C.ar    1  UNL1        0.0988
      5 N         142.9198  143.9413  159.6513 N.ar    1  UNL1       -0.2436
      6 C         142.5114  142.9291  160.6802 C.ar    1  UNL1        0.0871
      7 C         139.6547  144.0814  157.3998 C.ar    1  UNL1        0.0032
      8 C         138.5555  143.1429  156.9985 C.ar    1  UNL1        0.0115
      9 C         137.6032  143.5269  155.9051 C.ar    1  UNL1        0.0585
     10 CL        136.5040  142.5885  155.5039 Cl      1  UNL1       -0.0822
     11 C         137.7502  144.8495  155.2128 C.ar    1  UNL1        0.0228
     12 C         138.8494  145.7880  155.6140 C.ar    1  UNL1        0.0585
     13 CL        138.9964  147.1105  154.9217 Cl      1  UNL1       -0.0822
     14 C         139.8017  145.4039  156.7075 C.ar    1  UNL1        0.0115
     15 C         143.4636  142.5450  161.7738 C.ar    1  UNL1        0.0370
     16 C         143.5345  143.3640  163.0285 C.ar    1  UNL1        0.0046
     17 C         144.4867  142.9800  164.1220 C.ar    1  UNL1        0.0207
     18 C         145.3680  141.7769  163.9608 C.ar    1  UNL1        0.0989
     19 N         145.2970  140.9579  162.7061 N.ar    1  UNL1       -0.2423
     20 C         144.3449  141.3420  161.6126 C.ar    1  UNL1        0.1003
     21 N         140.0207  141.7284  162.8840 N.am    1  UNL1       -0.2969
     22 C         140.7423  141.2888  161.6447 C.2     1  UNL1        0.2476
     23 O         141.0556  139.8371  161.4343 O.2     1  UNL1       -0.2701
     24 H         139.8151  142.6813  163.0221 H       1  UNL1        0.1501
     25 C         139.6123  140.7163  163.9130 C.3     1  UNL1        0.1167
     26 C         142.1217  140.1176  167.6001 C.ar    1  UNL1        0.1724
     27 C         142.7795  140.4154  166.2853 C.ar    1  UNL1        0.0398
     28 C         141.9431  140.6150  165.0563 C.ar    1  UNL1        0.0007
     29 C         140.4488  140.5168  165.1420 C.ar    1  UNL1        0.0007
     30 C         139.7909  140.2190  166.4567 C.ar    1  UNL1        0.0374
     31 C         140.6274  140.0195  167.6858 C.ar    1  UNL1        0.1721
     32 C         143.1449  141.0457  169.8005 C.3     1  UNL1        0.2526
     33 O         142.9581  139.9181  168.8291 O.3     1  UNL1       -0.4684
     34 O         139.9695  139.7217  169.0005 O.3     1  UNL1       -0.4684
     35 C         139.3717  140.8347  169.8091 C.3     1  UNL1        0.2526
@<TRIPOS>BOND
     1    32    33    1
     2    33    26    1
     3    26    27   ar
     4    27    28   ar
     5    28    29   ar
     6    29    25    1
     7    25    21    1
     8    21    22   am
     9    22    23    2
    10    22     1    1
    11     1     2   ar
    12     2     3   ar
    13     3     7    1
    14     7     8   ar
    15     8     9   ar
    16     9    10    1
    17     9    11   ar
    18    11    12   ar
    19    12    13    1
    20    12    14   ar
    21     3     4   ar
    22     4     5   ar
    23     5     6   ar
    24     6    15    1
    25    15    16   ar
    26    16    17   ar
    27    17    18   ar
    28    18    19   ar
    29    19    20   ar
    30    29    30   ar
    31    30    31   ar
    32    31    34    1
    33    34    35    1
    34    31    26   ar
    35     6     1   ar
    36    20    15   ar
    37    14     7   ar
    38    21    24    1
@<TRIPOS>MOLECULE
*****
 35 38 0 0 0
SMALL
GASTEIGER

@<TRIPOS>ATOM
      1 C         141.0523  143.9333  160.9745 C.ar    1  UNL1        0.0711
      2 C         140.1913  144.4016  159.8390 C.ar    1  UNL1        0.0076
      3 C         140.7589  144.4871  158.4531 C.ar    1  UNL1        0.0194
      4 C         142.1875  144.1043  158.2028 C.ar    1  UNL1        0.0988
      5 N         143.0485  143.6360  159.3384 N.ar    1  UNL1       -0.2436
      6 C         142.4809  143.5505  160.7242 C.ar    1  UNL1        0.0871
      7 C         139.8979  144.9554  157.3176 C.ar    1  UNL1        0.0032
      8 C         139.9139  146.3988  156.9100 C.ar    1  UNL1        0.0115
      9 C         139.0529  146.8671  155.7745 C.ar    1  UNL1        0.0585
     10 CL        139.0689  148.3106  155.3669 Cl      1  UNL1       -0.0822
     11 C         138.1759  145.8919  155.0466 C.ar    1  UNL1        0.0228
     12 C         138.1599  144.4484  155.4542 C.ar    1  UNL1        0.0585
     13 CL        137.2829  143.4732  154.7264 Cl      1  UNL1       -0.0822
     14 C         139.0209  143.9802  156.5898 C.ar    1  UNL1        0.0115
     15 C         143.3419  143.0822  161.8598 C.ar    1  UNL1        0.0370
     16 C         143.5878  141.6161  162.0594 C.ar    1  UNL1        0.0046
     17 C         144.4487  141.1478  163.1949 C.ar    1  UNL1        0.0207
     18 C         145.0638  142.1456  164.1308 C.ar    1  UNL1        0.0989
     19 N         144.8179  143.6118  163.9311 N.ar    1  UNL1       -0.2423
     20 C         143.9570  144.0801  162.7956 C.ar    1  UNL1        0.1003
     21 N         139.9028  142.5564  162.8541 N.am    1  UNL1       -0.2969
     22 C         140.4847  143.8478  162.3604 C.2     1  UNL1        0.2476
     23 O         140.4991  145.0536  163.2525 O.2     1  UNL1       -0.2701
     24 H         139.8934  141.7650  162.2686 H       1  UNL1        0.1501
     25 C         139.3353  142.4708  164.2400 C.3     1  UNL1        0.1167
     26 C         141.8957  140.9932  167.6327 C.ar    1  UNL1        0.1724
     27 C         142.4912  141.8675  166.5694 C.ar    1  UNL1        0.0398
     28 C         141.6377  142.3601  165.4384 C.ar    1  UNL1        0.0007
     29 C         140.1887  141.9783  165.3709 C.ar    1  UNL1        0.0007
     30 C         139.5932  141.1039  166.4342 C.ar    1  UNL1        0.0374
     31 C         140.4467  140.6114  167.5652 C.ar    1  UNL1        0.1721
     32 C         143.2308  141.4589  169.8123 C.3     1  UNL1        0.2526
     33 O         142.7491  140.5006  168.7636 O.3     1  UNL1       -0.4684
     34 O         139.8511  139.7370  168.6286 O.3     1  UNL1       -0.4684
     35 C         139.3183  140.3481  169.8906 C.3     1  UNL1        0.2526
@<TRIPOS>BOND
     1    32    33    1
     2    33    26    1
     3    26    27   ar
     4    27    28   ar
     5    28    29   ar
     6    29    25    1
     7    25    21    1
     8    21    22   am
     9    22    23    2
    10    22     1    1
    11     1     2   ar
    12     2     3   ar
    13     3     7    1
    14     7     8   ar
    15     8     9   ar
    16     9    10    1
    17     9    11   ar
    18    11    12   ar
    19    12    13    1
    20    12    14   ar
    21     3     4   ar
    22     4     5   ar
    23     5     6   ar
    24     6    15    1
    25    15    16   ar
    26    16    17   ar
    27    17    18   ar
    28    18    19   ar
    29    19    20   ar
    30    29    30   ar
    31    30    31   ar
    32    31    34    1
    33    34    35    1
    34    31    26   ar
    35     6     1   ar
    36    20    15   ar
    37    14     7   ar
    38    21    24    1
@<TRIPOS>MOLECULE
*****
 35 38 0 0 0
SMALL
GASTEIGER

@<TRIPOS>ATOM
      1 C         140.2109  144.9649  158.5639 C.ar    1  UNL1        0.0711
      2 C         140.2201  146.1989  157.7113 C.ar    1  UNL1        0.0076
      3 C         139.6420  146.1589  156.3277 C.ar    1  UNL1        0.0194
      4 C         139.0547  144.8848  155.7968 C.ar    1  UNL1        0.0988
      5 N         139.0455  143.6508  156.6496 N.ar    1  UNL1       -0.2436
      6 C         139.6235  143.6909  158.0331 C.ar    1  UNL1        0.0871
      7 C         139.6512  147.3929  155.4750 C.ar    1  UNL1        0.0032
      8 C         140.3501  147.3823  154.1478 C.ar    1  UNL1        0.0115
      9 C         140.3593  148.6163  153.2951 C.ar    1  UNL1        0.0585
     10 CL        141.0583  148.6056  151.9679 Cl      1  UNL1       -0.0822
     11 C         139.6696  149.8610  153.7696 C.ar    1  UNL1        0.0228
     12 C         138.9707  149.8716  155.0968 C.ar    1  UNL1        0.0585
     13 CL        138.2810  151.1162  155.5712 Cl      1  UNL1       -0.0822
     14 C         138.9615  148.6375  155.9495 C.ar    1  UNL1        0.0115
     15 C         139.6143  142.4568  158.8859 C.ar    1  UNL1        0.0370
     16 C         138.4566  142.1858  159.8004 C.ar    1  UNL1        0.0046
     17 C         138.4474  140.9518  160.6531 C.ar    1  UNL1        0.0207
     18 C         139.5959  139.9889  160.5914 C.ar    1  UNL1        0.0989
     19 N         140.7536  140.2600  159.6769 N.ar    1  UNL1       -0.2423
     20 C         140.7628  141.4940  158.8242 C.ar    1  UNL1        0.1003
     21 N         139.9365  145.4351  161.1044 N.am    1  UNL1       -0.2969
     22 C         140.7890  145.0050  159.9475 C.2     1  UNL1        0.2476
     23 O         142.2195  144.6149  160.1742 O.2     1  UNL1       -0.2701
     24 H         138.9976  145.6911  160.9556 H       1  UNL1        0.1501
     25 C         140.5146  145.4752  162.4879 C.3     1  UNL1        0.1167
     26 C         139.9275  141.9901  165.2735 C.ar    1  UNL1        0.1724
     27 C         139.3651  143.3351  165.6262 C.ar    1  UNL1        0.0398
     28 C         139.5607  144.4968  164.6976 C.ar    1  UNL1        0.0007
     29 C         140.3189  144.3135  163.4164 C.ar    1  UNL1        0.0007
     30 C         140.8814  142.9684  163.0638 C.ar    1  UNL1        0.0374
     31 C         140.6857  141.8067  163.9923 C.ar    1  UNL1        0.1721
     32 C         138.6186  139.8530  165.9587 C.3     1  UNL1        0.2526
     33 O         139.7319  140.8283  166.2020 O.3     1  UNL1       -0.4684
     34 O         141.2482  140.4616  163.6395 O.3     1  UNL1       -0.4684
     35 C         142.5874  140.0457  164.1719 C.3     1  UNL1        0.2526
@<TRIPOS>BOND
     1    32    33    1
     2    33    26    1
     3    26    27   ar
     4    27    28   ar
     5    28    29   ar
     6    29    25    1
     7    25    21    1
     8    21    22   am
     9    22    23    2
    10    22     1    1
    11     1     2   ar
    12     2     3   ar
    13     3     7    1
    14     7     8   ar
    15     8     9   ar
    16     9    10    1
    17     9    11   ar
    18    11    12   ar
    19    12    13    1
    20    12    14   ar
    21     3     4   ar
    22     4     5   ar
    23     5     6   ar
    24     6    15    1
    25    15    16   ar
    26    16    17   ar
    27    17    18   ar
    28    18    19   ar
    29    19    20   ar
    30    29    30   ar
    31    30    31   ar
    32    31    34    1
    33    34    35    1
    34    31    26   ar
    35     6     1   ar
    36    20    15   ar
    37    14     7   ar
    38    21    24    1
@<TRIPOS>MOLECULE
*****
 35 38 0 0 0
SMALL
GASTEIGER

@<TRIPOS>ATOM
      1 C         140.2454  144.7002  159.3733 C.ar    1  UNL1        0.0711
      2 C         140.1476  145.8570  158.4234 C.ar    1  UNL1        0.0076
      3 C         139.9115  145.6102  156.9628 C.ar    1  UNL1        0.0194
      4 C         139.7732  144.2066  156.4521 C.ar    1  UNL1        0.0988
      5 N         139.8710  143.0498  157.4020 N.ar    1  UNL1       -0.2436
      6 C         140.1071  143.2966  158.8626 C.ar    1  UNL1        0.0871
      7 C         139.8136  146.7670  156.0129 C.ar    1  UNL1        0.0032
      8 C         139.0409  147.9927  156.4008 C.ar    1  UNL1        0.0115
      9 C         138.9430  149.1495  155.4510 C.ar    1  UNL1        0.0585
     10 CL        138.1703  150.3752  155.8389 Cl      1  UNL1       -0.0822
     11 C         139.6180  149.0806  154.1131 C.ar    1  UNL1        0.0228
     12 C         140.3908  147.8549  153.7252 C.ar    1  UNL1        0.0585
     13 CL        141.0657  147.7859  152.3875 Cl      1  UNL1       -0.0822
     14 C         140.4886  146.6980  154.6752 C.ar    1  UNL1        0.0115
     15 C         140.2050  142.1398  159.8125 C.ar    1  UNL1        0.0370
     16 C         141.5315  141.4867  160.0648 C.ar    1  UNL1        0.0046
     17 C         141.6294  140.3299  161.0147 C.ar    1  UNL1        0.0207
     18 C         140.4007  139.8263  161.7123 C.ar    1  UNL1        0.0989
     19 N         139.0742  140.4795  161.4600 N.ar    1  UNL1       -0.2423
     20 C         138.9763  141.6362  160.5101 C.ar    1  UNL1        0.1003
     21 N         141.8788  144.9394  161.3795 N.am    1  UNL1       -0.2969
     22 C         140.4816  144.9470  160.8339 C.2     1  UNL1        0.2476
     23 O         139.3205  145.2013  161.7489 O.2     1  UNL1       -0.2701
     24 H         142.6408  144.7725  160.7790 H       1  UNL1        0.1501
     25 C         142.1150  145.1862  162.8401 C.3     1  UNL1        0.1167
     26 C         142.7540  141.7167  165.6337 C.ar    1  UNL1        0.1724
     27 C         143.8076  142.7760  165.5001 C.ar    1  UNL1        0.0398
     28 C         143.5946  143.9325  164.5689 C.ar    1  UNL1        0.0007
     29 C         142.3280  144.0297  163.7713 C.ar    1  UNL1        0.0007
     30 C         141.2744  142.9704  163.9048 C.ar    1  UNL1        0.0374
     31 C         141.4875  141.8139  164.8360 C.ar    1  UNL1        0.1721
     32 C         142.6043  140.6880  168.0147 C.3     1  UNL1        0.2526
     33 O         142.9671  140.5602  166.5649 O.3     1  UNL1       -0.4684
     34 O         140.4338  140.7546  164.9696 O.3     1  UNL1       -0.4684
     35 C         139.2893  140.9507  165.9191 C.3     1  UNL1        0.2526
@<TRIPOS>BOND
     1    32    33    1
     2    33    26    1
     3    26    27   ar
     4    27    28   ar
     5    28    29   ar
     6    29    25    1
     7    25    21    1
     8    21    22   am
     9    22    23    2
    10    22     1    1
    11     1     2   ar
    12     2     3   ar
    13     3     7    1
    14     7     8   ar
    15     8     9   ar
    16     9    10    1
    17     9    11   ar
    18    11    12   ar
    19    12    13    1
    20    12    14   ar
    21     3     4   ar
    22     4     5   ar
    23     5     6   ar
    24     6    15    1
    25    15    16   ar
    26    16    17   ar
    27    17    18   ar
    28    18    19   ar
    29    19    20   ar
    30    29    30   ar
    31    30    31   ar
    32    31    34    1
    33    34    35    1
    34    31    26   ar
    35     6     1   ar
    36    20    15   ar
    37    14     7   ar
    38    21    24    1
@<TRIPOS>MOLECULE
*****
 35 38 0 0 0
SMALL
GASTEIGER

@<TRIPOS>ATOM
      1 C         139.2117  140.9837  161.2527 C.ar    1  UNL1        0.0711
      2 C         139.1596  140.2028  159.9731 C.ar    1  UNL1        0.0076
      3 C         138.7883  140.8875  158.6911 C.ar    1  UNL1        0.0194
      4 C         138.4690  142.3531  158.6888 C.ar    1  UNL1        0.0988
      5 N         138.5211  143.1340  159.9685 N.ar    1  UNL1       -0.2436
      6 C         138.8924  142.4493  161.2504 C.ar    1  UNL1        0.0871
      7 C         138.7362  140.1066  157.4115 C.ar    1  UNL1        0.0032
      8 C         137.8843  140.5866  156.2740 C.ar    1  UNL1        0.0115
      9 C         137.8322  139.8057  154.9944 C.ar    1  UNL1        0.0585
     10 CL        136.9803  140.2857  153.8570 Cl      1  UNL1       -0.0822
     11 C         138.6321  138.5447  154.8523 C.ar    1  UNL1        0.0228
     12 C         139.4840  138.0647  155.9897 C.ar    1  UNL1        0.0585
     13 CL        140.2839  136.8037  155.8476 Cl      1  UNL1       -0.0822
     14 C         139.5361  138.8457  157.2694 C.ar    1  UNL1        0.0115
     15 C         138.9445  143.2303  162.5301 C.ar    1  UNL1        0.0370
     16 C         137.7143  143.3635  163.3779 C.ar    1  UNL1        0.0046
     17 C         137.7663  144.1444  164.6576 C.ar    1  UNL1        0.0207
     18 C         139.0485  144.7920  165.0893 C.ar    1  UNL1        0.0989
     19 N         140.2787  144.6588  164.2415 N.ar    1  UNL1       -0.2423
     20 C         140.2267  143.8779  162.9618 C.ar    1  UNL1        0.1003
     21 N         138.5233  139.9727  163.5449 N.am    1  UNL1       -0.2969
     22 C         139.5830  140.2990  162.5346 C.2     1  UNL1        0.2476
     23 O         141.0140  139.9406  162.8063 O.2     1  UNL1       -0.2701
     24 H         137.5841  140.2080  163.3665 H       1  UNL1        0.1501
     25 C         138.8946  139.2881  164.8268 C.3     1  UNL1        0.1167
     26 C         140.3815  141.7045  168.3196 C.ar    1  UNL1        0.1724
     27 C         140.6731  142.1537  166.9185 C.ar    1  UNL1        0.0398
     28 C         140.1774  141.3482  165.7542 C.ar    1  UNL1        0.0007
     29 C         139.3902  140.0936  165.9911 C.ar    1  UNL1        0.0007
     30 C         139.0986  139.6444  167.3922 C.ar    1  UNL1        0.0374
     31 C         139.5943  140.4499  168.5564 C.ar    1  UNL1        0.1721
     32 C         140.3372  143.8883  169.7265 C.3     1  UNL1        0.2526
     33 O         140.8771  142.5100  169.4839 O.3     1  UNL1       -0.4684
     34 O         139.3026  140.0007  169.9576 O.3     1  UNL1       -0.4684
     35 C         140.4280  139.7850  170.9256 C.3     1  UNL1        0.2526
@<TRIPOS>BOND
     1    32    33    1
     2    33    26    1
     3    26    27   ar
     4    27    28   ar
     5    28    29   ar
     6    29    25    1
     7    25    21    1
     8    21    22   am
     9    22    23    2
    10    22     1    1
    11     1     2   ar
    12     2     3   ar
    13     3     7    1
    14     7     8   ar
    15     8     9   ar
    16     9    10    1
    17     9    11   ar
    18    11    12   ar
    19    12    13    1
    20    12    14   ar
    21     3     4   ar
    22     4     5   ar
    23     5     6   ar
    24     6    15    1
    25    15    16   ar
    26    16    17   ar
    27    17    18   ar
    28    18    19   ar
    29    19    20   ar
    30    29    30   ar
    31    30    31   ar
    32    31    34    1
    33    34    35    1
    34    31    26   ar
    35     6     1   ar
    36    20    15   ar
    37    14     7   ar
    38    21    24    1
