@<TRIPOS>MOLECULE
*****
 29 31 0 0 0
SMALL
GASTEIGER

@<TRIPOS>ATOM
      1 C         140.4125  145.0503  160.4195 C.ar    1  UNL1        0.2181
      2 N         141.8883  144.8044  160.5261 N.ar    1  UNL1       -0.1986
      3 C         142.4465  144.1005  161.7274 C.ar    1  UNL1        0.1390
      4 C         141.5288  143.6425  162.8219 C.ar    1  UNL1        0.0786
      5 S         141.7875  142.9284  164.1155 S.2     1  UNL1       -0.0826
      6 C         140.4715  142.7331  164.8082 C.ar    1  UNL1        0.0311
      7 C         139.3995  143.3263  163.9429 C.ar    1  UNL1        0.0263
      8 C         140.0530  143.8884  162.7152 C.ar    1  UNL1        0.0933
      9 N         139.4948  144.5923  161.5140 N.ar    1  UNL1       -0.2132
     10 C         140.2639  142.0622  166.1337 C.ar    1  UNL1        0.0060
     11 C         139.7241  140.6639  166.1902 C.ar    1  UNL1        0.0004
     12 C         139.5166  139.9931  167.5157 C.ar    1  UNL1        0.0039
     13 C         139.8488  140.7206  168.7847 C.ar    1  UNL1        0.0714
     14 C         140.3886  142.1189  168.7282 C.ar    1  UNL1        0.0039
     15 C         140.5961  142.7897  167.4027 C.ar    1  UNL1        0.0004
     16 C         139.6412  140.0497  170.1102 C.3     1  UNL1        0.4186
     17 F         139.4337  139.3789  171.4356 F       1  UNL1       -0.1659
     18 F         138.2820  140.6757  170.2142 F       1  UNL1       -0.1659
     19 F         141.0004  139.4237  170.0061 F       1  UNL1       -0.1659
     20 C         140.5990  145.7218  157.9166 C.3     1  UNL1        0.1108
     21 N         139.8543  145.7543  159.2182 N.pl3   1  UNL1       -0.3013
     22 H         138.9991  146.2376  159.2842 H       1  UNL1        0.1497
     23 N         143.9224  143.8546  161.8340 N.pl3   1  UNL1       -0.3107
     24 H         144.5242  144.5832  162.1102 H       1  UNL1        0.1485
     25 C         144.4815  142.4986  161.5197 C.3     1  UNL1        0.1930
     26 C         145.1148  141.6787  162.6044 C.3     1  UNL1        0.4154
     27 F         145.7481  140.8588  163.6892 F       1  UNL1       -0.1682
     28 F         144.9333  140.4418  161.7755 F       1  UNL1       -0.1682
     29 F         145.2963  142.9156  163.4333 F       1  UNL1       -0.1682
@<TRIPOS>BOND
     1    20    21    1
     2    21     1    1
     3     1     2   ar
     4     2     3   ar
     5     3    23    1
     6    23    25    1
     7    25    26    1
     8    26    27    1
     9    26    28    1
    10    26    29    1
    11     3     4   ar
    12     4     5   ar
    13     5     6   ar
    14     6    10    1
    15    10    11   ar
    16    11    12   ar
    17    12    13   ar
    18    13    16    1
    19    16    17    1
    20    16    18    1
    21    16    19    1
    22    13    14   ar
    23    14    15   ar
    24     6     7   ar
    25     7     8   ar
    26     8     9   ar
    27     9     1   ar
    28     8     4   ar
    29    15    10   ar
    30    21    22    1
    31    23    24    1
@<TRIPOS>MOLECULE
*****
 29 31 0 0 0
SMALL
GASTEIGER

@<TRIPOS>ATOM
      1 C         140.6794  144.9555  159.1680 C.ar    1  UNL1        0.2181
      2 N         142.0388  144.9030  159.7998 N.ar    1  UNL1       -0.1986
      3 C         142.2861  144.0025  160.9737 C.ar    1  UNL1        0.1390
      4 C         141.1739  143.1544  161.5157 C.ar    1  UNL1        0.0786
      5 S         141.1190  142.1781  162.6531 S.2     1  UNL1       -0.0826
      6 C         139.7257  141.6271  162.7242 C.ar    1  UNL1        0.0311
      7 C         138.9194  142.2629  161.6307 C.ar    1  UNL1        0.0263
      8 C         139.8144  143.2069  160.8838 C.ar    1  UNL1        0.0933
      9 N         139.5672  144.1074  159.7099 N.ar    1  UNL1       -0.2132
     10 C         139.2263  140.6176  163.7148 C.ar    1  UNL1        0.0060
     11 C         138.6055  141.0734  165.0020 C.ar    1  UNL1        0.0004
     12 C         138.1061  140.0637  165.9927 C.ar    1  UNL1        0.0039
     13 C         138.2275  138.5984  165.6961 C.ar    1  UNL1        0.0714
     14 C         138.8483  138.1426  164.4089 C.ar    1  UNL1        0.0039
     15 C         139.3477  139.1522  163.4183 C.ar    1  UNL1        0.0004
     16 C         137.7281  137.5888  166.6868 C.3     1  UNL1        0.4186
     17 F         137.2287  136.5793  167.6774 F       1  UNL1       -0.1659
     18 F         137.2856  138.6982  167.5943 F       1  UNL1       -0.1659
     19 F         138.1706  136.4795  165.7792 F       1  UNL1       -0.1659
     20 C         141.1713  145.6320  156.7082 C.3     1  UNL1        0.1108
     21 N         140.4321  145.8560  157.9940 N.pl3   1  UNL1       -0.3013
     22 H         139.7847  146.5940  158.0675 H       1  UNL1        0.1497
     23 N         143.6455  143.9501  161.6055 N.pl3   1  UNL1       -0.3107
     24 H         144.3597  143.4127  161.1928 H       1  UNL1        0.1485
     25 C         143.9168  144.7166  162.8660 C.3     1  UNL1        0.1930
     26 C         144.2995  143.9871  164.1196 C.3     1  UNL1        0.4154
     27 F         144.6823  143.2577  165.3731 F       1  UNL1       -0.1682
     28 F         144.1584  145.2587  164.9026 F       1  UNL1       -0.1682
     29 F         144.4406  142.7155  163.3365 F       1  UNL1       -0.1682
@<TRIPOS>BOND
     1    20    21    1
     2    21     1    1
     3     1     2   ar
     4     2     3   ar
     5     3    23    1
     6    23    25    1
     7    25    26    1
     8    26    27    1
     9    26    28    1
    10    26    29    1
    11     3     4   ar
    12     4     5   ar
    13     5     6   ar
    14     6    10    1
    15    10    11   ar
    16    11    12   ar
    17    12    13   ar
    18    13    16    1
    19    16    17    1
    20    16    18    1
    21    16    19    1
    22    13    14   ar
    23    14    15   ar
    24     6     7   ar
    25     7     8   ar
    26     8     9   ar
    27     9     1   ar
    28     8     4   ar
    29    15    10   ar
    30    21    22    1
    31    23    24    1
@<TRIPOS>MOLECULE
*****
 29 31 0 0 0
SMALL
GASTEIGER

@<TRIPOS>ATOM
      1 C         137.9823  140.7978  158.9856 C.ar    1  UNL1        0.2181
      2 N         138.3842  142.2351  159.1357 N.ar    1  UNL1       -0.1986
      3 C         138.7642  142.7708  160.4843 C.ar    1  UNL1        0.1390
      4 C         138.7424  141.8690  161.6828 C.ar    1  UNL1        0.0786
      5 S         139.0632  142.1122  163.1277 S.2     1  UNL1       -0.0826
      6 C         138.8596  140.8251  163.8706 C.ar    1  UNL1        0.0311
      7 C         138.4129  139.7865  162.8849 C.ar    1  UNL1        0.0263
      8 C         138.3404  140.4317  161.5326 C.ar    1  UNL1        0.0933
      9 N         137.9604  139.8961  160.1841 N.ar    1  UNL1       -0.2132
     10 C         139.0664  140.6137  165.3412 C.ar    1  UNL1        0.0060
     11 C         138.3498  139.5009  166.0470 C.ar    1  UNL1        0.0004
     12 C         138.5566  139.2896  167.5176 C.ar    1  UNL1        0.0039
     13 C         139.4799  140.1910  168.2824 C.ar    1  UNL1        0.0714
     14 C         140.1965  141.3038  167.5766 C.ar    1  UNL1        0.0039
     15 C         139.9897  141.5152  166.1060 C.ar    1  UNL1        0.0004
     16 C         139.6867  139.9796  169.7530 C.3     1  UNL1        0.4186
     17 F         139.8935  139.7682  171.2234 F       1  UNL1       -0.1659
     18 F         138.2951  140.4720  170.0194 F       1  UNL1       -0.1659
     19 F         141.0783  139.4872  169.4864 F       1  UNL1       -0.1659
     20 C         136.9245  141.1542  156.6395 C.3     1  UNL1        0.1108
     21 N         137.6023  140.2621  157.6370 N.pl3   1  UNL1       -0.3013
     22 H         137.7977  139.3252  157.4065 H       1  UNL1        0.1497
     23 N         139.1662  144.2082  160.6343 N.pl3   1  UNL1       -0.3107
     24 H         138.4813  144.9152  160.6163 H       1  UNL1        0.1485
     25 C         140.6114  144.5682  160.8118 C.3     1  UNL1        0.1930
     26 C         141.0818  145.1672  162.1040 C.3     1  UNL1        0.4154
     27 F         141.5522  145.7662  163.3963 F       1  UNL1       -0.1682
     28 F         142.4798  144.7126  161.8058 F       1  UNL1       -0.1682
     29 F         139.6838  145.6219  162.4022 F       1  UNL1       -0.1682
@<TRIPOS>BOND
     1    20    21    1
     2    21     1    1
     3     1     2   ar
     4     2     3   ar
     5     3    23    1
     6    23    25    1
     7    25    26    1
     8    26    27    1
     9    26    28    1
    10    26    29    1
    11     3     4   ar
    12     4     5   ar
    13     5     6   ar
    14     6    10    1
    15    10    11   ar
    16    11    12   ar
    17    12    13   ar
    18    13    16    1
    19    16    17    1
    20    16    18    1
    21    16    19    1
    22    13    14   ar
    23    14    15   ar
    24     6     7   ar
    25     7     8   ar
    26     8     9   ar
    27     9     1   ar
    28     8     4   ar
    29    15    10   ar
    30    21    22    1
    31    23    24    1
@<TRIPOS>MOLECULE
*****
 29 31 0 0 0
SMALL
GASTEIGER

@<TRIPOS>ATOM
      1 C         139.8739  143.8519  159.9901 C.ar    1  UNL1        0.2181
      2 N         141.1202  144.5693  160.4166 N.ar    1  UNL1       -0.1986
      3 C         141.6311  144.4164  161.8186 C.ar    1  UNL1        0.1390
      4 C         140.8956  143.5461  162.7941 C.ar    1  UNL1        0.0786
      5 S         141.1575  143.2060  164.2314 S.2     1  UNL1       -0.0826
      6 C         140.0729  142.2783  164.6931 C.ar    1  UNL1        0.0311
      7 C         139.1408  142.0451  163.5412 C.ar    1  UNL1        0.0263
      8 C         139.6493  142.8287  162.3676 C.ar    1  UNL1        0.0933
      9 N         139.1384  142.9816  160.9656 N.ar    1  UNL1       -0.2132
     10 C         139.9432  141.6876  166.0658 C.ar    1  UNL1        0.0060
     11 C         139.3228  140.3336  166.2440 C.ar    1  UNL1        0.0004
     12 C         139.1932  139.7429  167.6167 C.ar    1  UNL1        0.0039
     13 C         139.6838  140.5061  168.8112 C.ar    1  UNL1        0.0714
     14 C         140.3042  141.8602  168.6329 C.ar    1  UNL1        0.0039
     15 C         140.4338  142.4509  167.2602 C.ar    1  UNL1        0.0004
     16 C         139.5541  139.9154  170.1838 C.3     1  UNL1        0.4186
     17 F         139.4244  139.3247  171.5564 F       1  UNL1       -0.1659
     18 F         140.9608  139.4022  170.0959 F       1  UNL1       -0.1659
     19 F         138.1474  140.4287  170.2717 F       1  UNL1       -0.1659
     20 C         140.2825  143.7744  157.4255 C.3     1  UNL1        0.1108
     21 N         139.3630  144.0047  158.5880 N.pl3   1  UNL1       -0.3013
     22 H         138.4242  144.2562  158.4308 H       1  UNL1        0.1497
     23 N         142.8775  145.1339  162.2451 N.pl3   1  UNL1       -0.3107
     24 H         142.8994  146.1181  162.2566 H       1  UNL1        0.1485
     25 C         144.0904  144.3518  162.6539 C.3     1  UNL1        0.1930
     26 C         144.4052  144.1619  164.1082 C.3     1  UNL1        0.4154
     27 F         144.7199  143.9720  165.5624 F       1  UNL1       -0.1682
     28 F         145.0072  142.8223  163.8029 F       1  UNL1       -0.1682
     29 F         143.8032  145.5015  164.4134 F       1  UNL1       -0.1682
@<TRIPOS>BOND
     1    20    21    1
     2    21     1    1
     3     1     2   ar
     4     2     3   ar
     5     3    23    1
     6    23    25    1
     7    25    26    1
     8    26    27    1
     9    26    28    1
    10    26    29    1
    11     3     4   ar
    12     4     5   ar
    13     5     6   ar
    14     6    10    1
    15    10    11   ar
    16    11    12   ar
    17    12    13   ar
    18    13    16    1
    19    16    17    1
    20    16    18    1
    21    16    19    1
    22    13    14   ar
    23    14    15   ar
    24     6     7   ar
    25     7     8   ar
    26     8     9   ar
    27     9     1   ar
    28     8     4   ar
    29    15    10   ar
    30    21    22    1
    31    23    24    1
@<TRIPOS>MOLECULE
*****
 29 31 0 0 0
SMALL
GASTEIGER

@<TRIPOS>ATOM
      1 C         138.3656  140.2557  160.3244 C.ar    1  UNL1        0.2181
      2 N         137.7410  141.5144  160.8491 N.ar    1  UNL1       -0.1986
      3 C         138.0226  141.9629  162.2526 C.ar    1  UNL1        0.1390
      4 C         138.9288  141.1525  163.1313 C.ar    1  UNL1        0.0786
      5 S         139.3880  141.3427  164.5465 S.2     1  UNL1       -0.0826
      6 C         140.2963  140.2015  164.8964 C.ar    1  UNL1        0.0311
      7 C         140.3986  139.3059  163.6974 C.ar    1  UNL1        0.0263
      8 C         139.5534  139.8937  162.6065 C.ar    1  UNL1        0.0933
      9 N         139.2718  139.4453  161.2030 N.ar    1  UNL1       -0.2132
     10 C         140.9821  139.9924  166.2140 C.ar    1  UNL1        0.0060
     11 C         140.3272  140.4542  167.4820 C.ar    1  UNL1        0.0004
     12 C         141.0130  140.2451  168.7996 C.ar    1  UNL1        0.0039
     13 C         142.3538  139.5743  168.8491 C.ar    1  UNL1        0.0714
     14 C         143.0087  139.1126  167.5811 C.ar    1  UNL1        0.0039
     15 C         142.3229  139.3217  166.2636 C.ar    1  UNL1        0.0004
     16 C         143.0396  139.3653  170.1667 C.3     1  UNL1        0.4186
     17 F         143.7253  139.1563  171.4842 F       1  UNL1       -0.1659
     18 F         142.6381  137.9202  170.1464 F       1  UNL1       -0.1659
     19 F         143.4409  140.8105  170.1870 F       1  UNL1       -0.1659
     20 C         138.3455  140.7340  157.7708 C.3     1  UNL1        0.1108
     21 N         138.0840  139.8073  158.9209 N.pl3   1  UNL1       -0.3013
     22 H         137.7276  138.9047  158.7546 H       1  UNL1        0.1497
     23 N         137.3980  143.2217  162.7773 N.pl3   1  UNL1       -0.3107
     24 H         136.4272  143.2604  162.9361 H       1  UNL1        0.1485
     25 C         138.2526  144.4216  163.0600 C.3     1  UNL1        0.1930
     26 C         138.6000  144.7782  164.4750 C.3     1  UNL1        0.4154
     27 F         138.9475  145.1348  165.8900 F       1  UNL1       -0.1682
     28 F         137.2198  144.3864  164.9127 F       1  UNL1       -0.1682
     29 F         139.9802  145.1700  164.0373 F       1  UNL1       -0.1682
@<TRIPOS>BOND
     1    20    21    1
     2    21     1    1
     3     1     2   ar
     4     2     3   ar
     5     3    23    1
     6    23    25    1
     7    25    26    1
     8    26    27    1
     9    26    28    1
    10    26    29    1
    11     3     4   ar
    12     4     5   ar
    13     5     6   ar
    14     6    10    1
    15    10    11   ar
    16    11    12   ar
    17    12    13   ar
    18    13    16    1
    19    16    17    1
    20    16    18    1
    21    16    19    1
    22    13    14   ar
    23    14    15   ar
    24     6     7   ar
    25     7     8   ar
    26     8     9   ar
    27     9     1   ar
    28     8     4   ar
    29    15    10   ar
    30    21    22    1
    31    23    24    1
@<TRIPOS>MOLECULE
*****
 29 31 0 0 0
SMALL
GASTEIGER

@<TRIPOS>ATOM
      1 C         141.2960  144.9482  159.9218 C.ar    1  UNL1        0.2181
      2 N         139.9552  144.2763  159.9000 N.ar    1  UNL1       -0.1986
      3 C         139.4518  143.5667  161.1220 C.ar    1  UNL1        0.1390
      4 C         140.2894  143.5292  162.3658 C.ar    1  UNL1        0.0786
      5 S         140.0585  142.9114  163.7130 S.2     1  UNL1       -0.0826
      6 C         141.2568  143.2015  164.5674 C.ar    1  UNL1        0.0311
      7 C         142.2282  143.9986  163.7483 C.ar    1  UNL1        0.0263
      8 C         141.6303  144.2012  162.3876 C.ar    1  UNL1        0.0933
      9 N         142.1336  144.9106  161.1656 N.ar    1  UNL1       -0.2132
     10 C         141.4498  142.7702  165.9911 C.ar    1  UNL1        0.0060
     11 C         140.3095  142.8555  166.9618 C.ar    1  UNL1        0.0004
     12 C         140.5026  142.4242  168.3854 C.ar    1  UNL1        0.0039
     13 C         141.8360  141.9076  168.8383 C.ar    1  UNL1        0.0714
     14 C         142.9763  141.8222  167.8676 C.ar    1  UNL1        0.0039
     15 C         142.7832  142.2535  166.4440 C.ar    1  UNL1        0.0004
     16 C         142.0290  141.4763  170.2620 C.3     1  UNL1        0.4186
     17 F         142.2220  141.0450  171.6855 F       1  UNL1       -0.1659
     18 F         140.7720  142.1968  170.6507 F       1  UNL1       -0.1659
     19 F         143.2859  140.7558  169.8732 F       1  UNL1       -0.1659
     20 C         140.8664  145.9425  157.5603 C.3     1  UNL1        0.1108
     21 N         141.7994  145.6577  158.6998 N.pl3   1  UNL1       -0.3013
     22 H         142.7421  145.9364  158.6456 H       1  UNL1        0.1497
     23 N         138.1108  142.8948  161.1002 N.pl3   1  UNL1       -0.3107
     24 H         137.3152  143.3732  161.4278 H       1  UNL1        0.1485
     25 C         137.9822  141.4941  160.5792 C.3     1  UNL1        0.1930
     26 C         137.7776  140.3550  161.5334 C.3     1  UNL1        0.4154
     27 F         137.5729  139.2158  162.4876 F       1  UNL1       -0.1682
     28 F         137.1608  141.2964  162.5251 F       1  UNL1       -0.1682
     29 F         138.3943  139.4135  160.5417 F       1  UNL1       -0.1682
@<TRIPOS>BOND
     1    20    21    1
     2    21     1    1
     3     1     2   ar
     4     2     3   ar
     5     3    23    1
     6    23    25    1
     7    25    26    1
     8    26    27    1
     9    26    28    1
    10    26    29    1
    11     3     4   ar
    12     4     5   ar
    13     5     6   ar
    14     6    10    1
    15    10    11   ar
    16    11    12   ar
    17    12    13   ar
    18    13    16    1
    19    16    17    1
    20    16    18    1
    21    16    19    1
    22    13    14   ar
    23    14    15   ar
    24     6     7   ar
    25     7     8   ar
    26     8     9   ar
    27     9     1   ar
    28     8     4   ar
    29    15    10   ar
    30    21    22    1
    31    23    24    1
@<TRIPOS>MOLECULE
*****
 29 31 0 0 0
SMALL
GASTEIGER

@<TRIPOS>ATOM
      1 C         144.0928  140.6328  158.6171 C.ar    1  UNL1        0.2181
      2 N         144.2849  141.9441  159.3195 N.ar    1  UNL1       -0.1986
      3 C         143.5898  142.2058  160.6228 C.ar    1  UNL1        0.1390
      4 C         142.7026  141.1561  161.2236 C.ar    1  UNL1        0.0786
      5 S         141.8932  141.1287  162.4861 S.2     1  UNL1       -0.0826
      6 C         141.2008  139.8003  162.5639 C.ar    1  UNL1        0.0311
      7 C         141.5823  139.0068  161.3495 C.ar    1  UNL1        0.0263
      8 C         142.5105  139.8448  160.5211 C.ar    1  UNL1        0.0933
      9 N         143.2056  139.5831  159.2179 N.ar    1  UNL1       -0.2132
     10 C         140.2872  139.3453  163.6632 C.ar    1  UNL1        0.0060
     11 C         140.1516  137.8830  163.9686 C.ar    1  UNL1        0.0004
     12 C         139.2380  137.4281  165.0679 C.ar    1  UNL1        0.0039
     13 C         138.4601  138.4354  165.8618 C.ar    1  UNL1        0.0714
     14 C         138.5958  139.8977  165.5564 C.ar    1  UNL1        0.0039
     15 C         139.5094  140.3526  164.4571 C.ar    1  UNL1        0.0004
     16 C         137.5465  137.9804  166.9611 C.3     1  UNL1        0.4186
     17 F         136.6330  137.5254  168.0603 F       1  UNL1       -0.1659
     18 F         137.6581  139.3275  167.6114 F       1  UNL1       -0.1659
     19 F         137.4350  136.6333  166.3107 F       1  UNL1       -0.1659
     20 C         145.6229  141.4443  156.6805 C.3     1  UNL1        0.1108
     21 N         144.7879  140.3711  157.3139 N.pl3   1  UNL1       -0.3013
     22 H         144.6961  139.4950  156.8742 H       1  UNL1        0.1497
     23 N         143.7820  143.5173  161.3252 N.pl3   1  UNL1       -0.3107
     24 H         143.5056  144.3550  160.8880 H       1  UNL1        0.1485
     25 C         144.3952  143.5523  162.6936 C.3     1  UNL1        0.1930
     26 C         143.9097  144.5453  163.7077 C.3     1  UNL1        0.4154
     27 F         143.4242  145.5383  164.7218 F       1  UNL1       -0.1682
     28 F         144.2786  145.6685  162.7845 F       1  UNL1       -0.1682
     29 F         143.5408  143.4221  164.6310 F       1  UNL1       -0.1682
@<TRIPOS>BOND
     1    20    21    1
     2    21     1    1
     3     1     2   ar
     4     2     3   ar
     5     3    23    1
     6    23    25    1
     7    25    26    1
     8    26    27    1
     9    26    28    1
    10    26    29    1
    11     3     4   ar
    12     4     5   ar
    13     5     6   ar
    14     6    10    1
    15    10    11   ar
    16    11    12   ar
    17    12    13   ar
    18    13    16    1
    19    16    17    1
    20    16    18    1
    21    16    19    1
    22    13    14   ar
    23    14    15   ar
    24     6     7   ar
    25     7     8   ar
    26     8     9   ar
    27     9     1   ar
    28     8     4   ar
    29    15    10   ar
    30    21    22    1
    31    23    24    1
@<TRIPOS>MOLECULE
*****
 29 31 0 0 0
SMALL
GASTEIGER

@<TRIPOS>ATOM
      1 C         143.8601  141.7210  159.3298 C.ar    1  UNL1        0.2181
      2 N         143.2534  143.0804  159.5136 N.ar    1  UNL1       -0.1986
      3 C         142.8375  143.5376  160.8804 C.ar    1  UNL1        0.1390
      4 C         143.0284  142.6353  162.0634 C.ar    1  UNL1        0.0786
      5 S         142.7173  142.8110  163.5202 S.2     1  UNL1       -0.0826
      6 C         143.1318  141.5601  164.2368 C.ar    1  UNL1        0.0311
      7 C         143.6990  140.6113  163.2228 C.ar    1  UNL1        0.0263
      8 C         143.6351  141.2758  161.8796 C.ar    1  UNL1        0.0933
      9 N         144.0510  140.8187  160.5128 N.ar    1  UNL1       -0.2132
     10 C         143.0019  141.3031  165.7089 C.ar    1  UNL1        0.0060
     11 C         143.1690  142.4301  166.6846 C.ar    1  UNL1        0.0004
     12 C         143.0390  142.1729  168.1567 C.ar    1  UNL1        0.0039
     13 C         142.7420  140.7890  168.6531 C.ar    1  UNL1        0.0714
     14 C         142.5750  139.6620  167.6774 C.ar    1  UNL1        0.0039
     15 C         142.7049  139.9191  166.2052 C.ar    1  UNL1        0.0004
     16 C         142.6121  140.5320  170.1252 C.3     1  UNL1        0.4186
     17 F         142.4822  140.2750  171.5972 F       1  UNL1       -0.1659
     18 F         142.3935  139.0735  169.8512 F       1  UNL1       -0.1659
     19 F         142.8307  141.9905  170.3990 F       1  UNL1       -0.1659
     20 C         145.3207  142.0259  157.2029 C.3     1  UNL1        0.1108
     21 N         144.2760  141.2638  157.9630 N.pl3   1  UNL1       -0.3013
     22 H         143.8634  140.4635  157.5649 H       1  UNL1        0.1497
     23 N         142.2308  144.8971  161.0641 N.pl3   1  UNL1       -0.3107
     24 H         142.8019  145.6630  161.3016 H       1  UNL1        0.1485
     25 C         140.7539  145.0896  160.8861 C.3     1  UNL1        0.1930
     26 C         139.8645  145.2200  162.0869 C.3     1  UNL1        0.4154
     27 F         138.9750  145.3505  163.2876 F       1  UNL1       -0.1682
     28 F         140.0074  146.7121  162.0306 F       1  UNL1       -0.1682
     29 F         139.7216  143.7279  162.1431 F       1  UNL1       -0.1682
@<TRIPOS>BOND
     1    20    21    1
     2    21     1    1
     3     1     2   ar
     4     2     3   ar
     5     3    23    1
     6    23    25    1
     7    25    26    1
     8    26    27    1
     9    26    28    1
    10    26    29    1
    11     3     4   ar
    12     4     5   ar
    13     5     6   ar
    14     6    10    1
    15    10    11   ar
    16    11    12   ar
    17    12    13   ar
    18    13    16    1
    19    16    17    1
    20    16    18    1
    21    16    19    1
    22    13    14   ar
    23    14    15   ar
    24     6     7   ar
    25     7     8   ar
    26     8     9   ar
    27     9     1   ar
    28     8     4   ar
    29    15    10   ar
    30    21    22    1
    31    23    24    1
@<TRIPOS>MOLECULE
*****
 29 31 0 0 0
SMALL
GASTEIGER

@<TRIPOS>ATOM
      1 C         144.3341  140.5799  158.2856 C.ar    1  UNL1        0.2181
      2 N         144.0993  142.0068  158.6837 N.ar    1  UNL1       -0.1986
      3 C         143.2088  142.3237  159.8485 C.ar    1  UNL1        0.1390
      4 C         142.5531  141.2136  160.6151 C.ar    1  UNL1        0.0786
      5 S         141.6315  141.2190  161.7986 S.2     1  UNL1       -0.0826
      6 C         141.2968  139.7953  162.1319 C.ar    1  UNL1        0.0311
      7 C         142.0115  138.9100  161.1543 C.ar    1  UNL1        0.0263
      8 C         142.7879  139.7866  160.2169 C.ar    1  UNL1        0.0933
      9 N         143.6784  139.4697  159.0521 N.ar    1  UNL1       -0.2132
     10 C         140.4041  139.3373  163.2469 C.ar    1  UNL1        0.0060
     11 C         139.8681  140.3306  164.2348 C.ar    1  UNL1        0.0004
     12 C         138.9754  139.8725  165.3498 C.ar    1  UNL1        0.0039
     13 C         138.6188  138.4211  165.4770 C.ar    1  UNL1        0.0714
     14 C         139.1548  137.4277  164.4891 C.ar    1  UNL1        0.0039
     15 C         140.0475  137.8859  163.3741 C.ar    1  UNL1        0.0004
     16 C         137.7261  137.9631  166.5921 C.3     1  UNL1        0.4186
     17 F         136.8335  137.5050  167.7070 F       1  UNL1       -0.1659
     18 F         137.5317  139.3871  167.0214 F       1  UNL1       -0.1659
     19 F         137.9206  136.5390  166.1627 F       1  UNL1       -0.1659
     20 C         145.3471  141.2343  155.9844 C.3     1  UNL1        0.1108
     21 N         145.2246  140.2630  157.1208 N.pl3   1  UNL1       -0.3013
     22 H         145.7286  139.4175  157.1022 H       1  UNL1        0.1497
     23 N         142.9740  143.7508  160.2466 N.pl3   1  UNL1       -0.3107
     24 H         143.5741  144.1862  160.8944 H       1  UNL1        0.1485
     25 C         141.8250  144.5144  159.6579 C.3     1  UNL1        0.1930
     26 C         140.8126  145.1583  160.5581 C.3     1  UNL1        0.4154
     27 F         139.8002  145.8022  161.4584 F       1  UNL1       -0.1682
     28 F         141.6475  144.8016  161.7521 F       1  UNL1       -0.1682
     29 F         139.9777  145.5150  159.3641 F       1  UNL1       -0.1682
@<TRIPOS>BOND
     1    20    21    1
     2    21     1    1
     3     1     2   ar
     4     2     3   ar
     5     3    23    1
     6    23    25    1
     7    25    26    1
     8    26    27    1
     9    26    28    1
    10    26    29    1
    11     3     4   ar
    12     4     5   ar
    13     5     6   ar
    14     6    10    1
    15    10    11   ar
    16    11    12   ar
    17    12    13   ar
    18    13    16    1
    19    16    17    1
    20    16    18    1
    21    16    19    1
    22    13    14   ar
    23    14    15   ar
    24     6     7   ar
    25     7     8   ar
    26     8     9   ar
    27     9     1   ar
    28     8     4   ar
    29    15    10   ar
    30    21    22    1
    31    23    24    1
