@<TRIPOS>MOLECULE
*****
 34 38 0 0 0
SMALL
GASTEIGER

@<TRIPOS>ATOM
      1 C         140.0807  141.4152  169.9265 C.3     1  UNL1        0.0437
      2 C         140.3898  141.9306  168.5522 C.3     1  UNL1        0.1352
      3 C         141.1372  142.9333  169.3805 C.3     1  UNL1        0.0437
      4 O         140.9584  142.7943  167.4656 O.3     1  UNL1       -0.4828
      5 C         140.6724  142.4763  166.0278 C.ar    1  UNL1        0.1361
      6 C         141.2410  143.3399  164.9412 C.ar    1  UNL1        0.0379
      7 C         140.9549  143.0220  163.5034 C.ar    1  UNL1        0.0178
      8 C         140.1002  141.8404  163.1523 C.ar    1  UNL1        0.0505
      9 C         139.5316  140.9767  164.2390 C.ar    1  UNL1        0.0153
     10 C         139.8177  141.2947  165.6767 C.ar    1  UNL1        0.0367
     11 C         139.2490  140.4310  166.7634 C.3     1  UNL1        0.1535
     12 C         138.8786  139.9914  165.3779 C.3     1  UNL1        0.2349
     13 O         138.0154  138.7703  165.4944 O.2     1  UNL1       -0.4478
     14 C         137.8523  138.4552  166.9519 C.2     1  UNL1        0.2770
     15 N         137.0649  137.3141  167.5244 N.pl3   1  UNL1       -0.3133
     16 N         138.6147  139.4816  167.7361 N.2     1  UNL1       -0.2204
     17 C         139.5351  140.7490  168.2011 C.3     1  UNL1        0.0597
     18 C         138.7134  139.5682  168.6258 C.3     1  UNL1        0.0058
     19 C         139.3720  140.4340  169.6585 C.3     1  UNL1        0.0058
     20 H         136.5960  136.6897  166.9248 H       1  UNL1        0.1466
     21 H         137.0170  137.1894  168.4998 H       1  UNL1        0.1466
     22 N         139.8141  141.5224  161.7146 N.am    1  UNL1       -0.2791
     23 C         138.6212  142.1273  161.0357 C.2     1  UNL1        0.2688
     24 O         137.7143  143.0502  161.7945 O.2     1  UNL1       -0.2681
     25 H         140.4094  140.9166  161.2166 H       1  UNL1        0.1552
     26 C         138.3351  141.8093  159.5980 C.ar    1  UNL1        0.1538
     27 C         138.2216  140.3810  159.1540 C.ar    1  UNL1        0.1224
     28 N         137.9355  140.0631  157.7162 N.ar    1  UNL1       -0.2393
     29 C         137.7629  141.1734  156.7225 C.ar    1  UNL1        0.1440
     30 C         137.8765  142.6016  157.1666 C.ar    1  UNL1        0.1193
     31 N         138.1626  142.9196  158.6042 N.ar    1  UNL1       -0.2362
     32 C         137.4769  140.8554  155.2849 C.3     1  UNL1        0.3597
     33 F         138.3460  139.8825  154.5446 F       1  UNL1       -0.1915
     34 F         136.3216  141.5103  154.5874 F       1  UNL1       -0.1915
@<TRIPOS>BOND
     1     1     2    1
     2     2     3    1
     3     2     4    1
     4     4     5    1
     5     5     6   ar
     6     6     7   ar
     7     7     8   ar
     8     8    22    1
     9    22    23   am
    10    23    24    2
    11    23    26    1
    12    26    27   ar
    13    27    28   ar
    14    28    29   ar
    15    29    32    1
    16    32    33    1
    17    32    34    1
    18    29    30   ar
    19    30    31   ar
    20     8     9   ar
    21     9    10   ar
    22    10    11    1
    23    11    12    1
    24    12    13    1
    25    13    14    1
    26    14    15    1
    27    14    16    2
    28    11    17    1
    29    17    18    1
    30    18    19    1
    31    17     2    1
    32    10     5   ar
    33    16    11    1
    34    19    17    1
    35    31    26   ar
    36    22    25    1
    37    15    20    1
    38    15    21    1
@<TRIPOS>MOLECULE
*****
 34 38 0 0 0
SMALL
GASTEIGER

@<TRIPOS>ATOM
      1 C         140.0164  141.5185  170.0422 C.3     1  UNL1        0.0437
      2 C         140.6283  141.7759  168.6971 C.3     1  UNL1        0.1352
      3 C         141.3707  142.7877  169.5188 C.3     1  UNL1        0.0437
      4 O         141.4981  142.3846  167.6374 O.3     1  UNL1       -0.4828
      5 C         141.4130  141.8921  166.2230 C.ar    1  UNL1        0.1361
      6 C         142.2827  142.5008  165.1633 C.ar    1  UNL1        0.0379
      7 C         142.1977  142.0084  163.7490 C.ar    1  UNL1        0.0178
      8 C         141.2428  140.9072  163.3944 C.ar    1  UNL1        0.0505
      9 C         140.3730  140.2985  164.4542 C.ar    1  UNL1        0.0153
     10 C         140.4581  140.7910  165.8684 C.ar    1  UNL1        0.0367
     11 C         139.5884  140.1823  166.9282 C.3     1  UNL1        0.1535
     12 C         139.3936  139.5893  165.5642 C.3     1  UNL1        0.2349
     13 O         138.3456  138.5214  165.6684 O.2     1  UNL1       -0.4478
     14 C         137.8925  138.4543  167.0968 C.2     1  UNL1        0.2770
     15 N         136.8537  137.5239  167.6494 N.pl3   1  UNL1       -0.3133
     16 N         138.6606  139.4807  167.8754 N.2     1  UNL1       -0.2204
     17 C         139.6735  140.6747  168.3425 C.3     1  UNL1        0.0597
     18 C         138.6201  139.6876  168.7496 C.3     1  UNL1        0.0058
     19 C         139.2205  140.6076  169.7709 C.3     1  UNL1        0.0058
     20 H         136.4022  136.8816  167.0554 H       1  UNL1        0.1466
     21 H         136.6235  137.5556  168.6061 H       1  UNL1        0.1466
     22 N         141.1577  140.4148  161.9801 N.am    1  UNL1       -0.2791
     23 C         141.8020  139.1151  161.5984 C.2     1  UNL1        0.2688
     24 O         142.5314  138.3079  162.6310 O.2     1  UNL1       -0.2681
     25 H         140.6789  140.9446  161.3024 H       1  UNL1        0.1552
     26 C         141.7169  138.6227  160.1842 C.ar    1  UNL1        0.1538
     27 C         142.9378  138.0760  159.5056 C.ar    1  UNL1        0.1224
     28 N         142.8526  137.5835  158.0912 N.ar    1  UNL1       -0.2393
     29 C         141.5466  137.6378  157.3556 C.ar    1  UNL1        0.1440
     30 C         140.3257  138.1844  158.0341 C.ar    1  UNL1        0.1193
     31 N         140.4108  138.6769  159.4484 N.ar    1  UNL1       -0.2362
     32 C         141.4615  137.1453  155.9413 C.3     1  UNL1        0.3597
     33 F         141.0442  135.7316  155.6632 F       1  UNL1       -0.1915
     34 F         141.7937  138.0666  154.8050 F       1  UNL1       -0.1915
@<TRIPOS>BOND
     1     1     2    1
     2     2     3    1
     3     2     4    1
     4     4     5    1
     5     5     6   ar
     6     6     7   ar
     7     7     8   ar
     8     8    22    1
     9    22    23   am
    10    23    24    2
    11    23    26    1
    12    26    27   ar
    13    27    28   ar
    14    28    29   ar
    15    29    32    1
    16    32    33    1
    17    32    34    1
    18    29    30   ar
    19    30    31   ar
    20     8     9   ar
    21     9    10   ar
    22    10    11    1
    23    11    12    1
    24    12    13    1
    25    13    14    1
    26    14    15    1
    27    14    16    2
    28    11    17    1
    29    17    18    1
    30    18    19    1
    31    17     2    1
    32    10     5   ar
    33    16    11    1
    34    19    17    1
    35    31    26   ar
    36    22    25    1
    37    15    20    1
    38    15    21    1
@<TRIPOS>MOLECULE
*****
 34 38 0 0 0
SMALL
GASTEIGER

@<TRIPOS>ATOM
      1 C         139.4445  139.9445  166.9593 C.3     1  UNL1        0.0437
      2 C         139.6576  141.2268  166.2108 C.3     1  UNL1        0.1352
      3 C         140.0215  141.6707  167.5966 C.3     1  UNL1        0.0437
      4 O         139.9971  142.6631  165.9435 O.3     1  UNL1       -0.4828
      5 C         139.8987  143.2104  164.5503 C.ar    1  UNL1        0.1361
      6 C         140.2382  144.6468  164.2830 C.ar    1  UNL1        0.0379
      7 C         140.1398  145.1940  162.8897 C.ar    1  UNL1        0.0178
      8 C         139.7018  144.3048  161.7639 C.ar    1  UNL1        0.0505
      9 C         139.3623  142.8683  162.0313 C.ar    1  UNL1        0.0153
     10 C         139.4608  142.3212  163.4244 C.ar    1  UNL1        0.0367
     11 C         139.1213  140.8847  163.6918 C.3     1  UNL1        0.1535
     12 C         138.9765  141.2886  162.2544 C.3     1  UNL1        0.2349
     13 O         138.5170  140.0890  161.4800 O.2     1  UNL1       -0.4478
     14 C         138.3778  138.9437  162.4387 C.2     1  UNL1        0.2770
     15 N         137.9417  137.5512  162.0912 N.pl3   1  UNL1       -0.3133
     16 N         138.7512  139.4355  163.8056 N.2     1  UNL1       -0.2204
     17 C         139.2197  140.3375  165.0849 C.3     1  UNL1        0.0597
     18 C         138.7708  138.9949  164.5893 C.3     1  UNL1        0.0058
     19 C         139.0805  139.1923  166.0436 C.3     1  UNL1        0.0058
     20 H         137.7163  137.3238  161.1603 H       1  UNL1        0.1466
     21 H         137.8809  136.8646  162.7942 H       1  UNL1        0.1466
     22 N         139.6034  144.8519  160.3708 N.am    1  UNL1       -0.2791
     23 C         140.8449  145.0453  159.5515 C.2     1  UNL1        0.2688
     24 O         142.1849  144.6915  160.1253 O.2     1  UNL1       -0.2681
     25 H         138.7240  145.0841  159.9941 H       1  UNL1        0.1552
     26 C         140.7465  145.5925  158.1583 C.ar    1  UNL1        0.1538
     27 C         141.7838  145.2327  157.1362 C.ar    1  UNL1        0.1224
     28 N         141.6853  145.7799  155.7430 N.ar    1  UNL1       -0.2393
     29 C         140.5496  146.6868  155.3720 C.ar    1  UNL1        0.1440
     30 C         139.5124  147.0466  156.3941 C.ar    1  UNL1        0.1193
     31 N         139.6108  146.4994  157.7872 N.ar    1  UNL1       -0.2362
     32 C         140.4512  147.2340  153.9789 C.3     1  UNL1        0.3597
     33 F         139.5946  148.4341  153.7032 F       1  UNL1       -0.1915
     34 F         141.2095  146.5811  152.8613 F       1  UNL1       -0.1915
@<TRIPOS>BOND
     1     1     2    1
     2     2     3    1
     3     2     4    1
     4     4     5    1
     5     5     6   ar
     6     6     7   ar
     7     7     8   ar
     8     8    22    1
     9    22    23   am
    10    23    24    2
    11    23    26    1
    12    26    27   ar
    13    27    28   ar
    14    28    29   ar
    15    29    32    1
    16    32    33    1
    17    32    34    1
    18    29    30   ar
    19    30    31   ar
    20     8     9   ar
    21     9    10   ar
    22    10    11    1
    23    11    12    1
    24    12    13    1
    25    13    14    1
    26    14    15    1
    27    14    16    2
    28    11    17    1
    29    17    18    1
    30    18    19    1
    31    17     2    1
    32    10     5   ar
    33    16    11    1
    34    19    17    1
    35    31    26   ar
    36    22    25    1
    37    15    20    1
    38    15    21    1
@<TRIPOS>MOLECULE
*****
 34 38 0 0 0
SMALL
GASTEIGER

@<TRIPOS>ATOM
      1 C         142.4869  141.0277  170.3196 C.3     1  UNL1        0.0437
      2 C         142.9183  141.6961  169.0480 C.3     1  UNL1        0.1352
      3 C         144.0068  142.1617  169.9692 C.3     1  UNL1        0.0437
      4 O         143.7277  142.5263  168.0963 O.3     1  UNL1       -0.4828
      5 C         143.2989  142.6588  166.6650 C.ar    1  UNL1        0.1361
      6 C         144.1083  143.4889  165.7134 C.ar    1  UNL1        0.0379
      7 C         143.6794  143.6214  164.2820 C.ar    1  UNL1        0.0178
      8 C         142.4412  142.9237  163.8024 C.ar    1  UNL1        0.0505
      9 C         141.6318  142.0935  164.7542 C.ar    1  UNL1        0.0153
     10 C         142.0606  141.9611  166.1854 C.ar    1  UNL1        0.0367
     11 C         141.2512  141.1309  167.1372 C.3     1  UNL1        0.1535
     12 C         140.7012  141.1705  165.7422 C.3     1  UNL1        0.2349
     13 O         139.4557  140.3352  165.7113 O.2     1  UNL1       -0.4478
     14 C         139.2360  139.7794  167.0871 C.2     1  UNL1        0.2770
     15 N         138.1050  138.8883  167.5077 N.pl3   1  UNL1       -0.3133
     16 N         140.3456  140.2712  167.9683 N.2     1  UNL1       -0.2204
     17 C         141.6801  140.9985  168.5684 C.3     1  UNL1        0.0597
     18 C         140.4979  140.1164  168.8410 C.3     1  UNL1        0.0058
     19 C         141.4604  140.4427  169.9442 C.3     1  UNL1        0.0058
     20 H         137.4213  138.6184  166.8528 H       1  UNL1        0.1466
     21 H         138.0465  138.5734  168.4386 H       1  UNL1        0.1466
     22 N         142.0124  143.0562  162.3712 N.am    1  UNL1       -0.2791
     23 C         141.3565  144.3197  161.8986 C.2     1  UNL1        0.2688
     24 O         141.1295  145.4508  162.8573 O.2     1  UNL1       -0.2681
     25 H         142.1614  142.3138  161.7420 H       1  UNL1        0.1552
     26 C         140.9277  144.4521  160.4674 C.ar    1  UNL1        0.1538
     27 C         139.7754  143.6420  159.9516 C.ar    1  UNL1        0.1224
     28 N         139.3466  143.7745  158.5203 N.ar    1  UNL1       -0.2393
     29 C         140.0700  144.7171  157.6048 C.ar    1  UNL1        0.1440
     30 C         141.2222  145.5272  158.1206 C.ar    1  UNL1        0.1193
     31 N         141.6510  145.3948  159.5518 N.ar    1  UNL1       -0.2362
     32 C         139.6411  144.8495  156.1736 C.3     1  UNL1        0.3597
     33 F         139.9121  143.7380  155.2035 F       1  UNL1       -0.1915
     34 F         138.9412  146.0936  155.7123 F       1  UNL1       -0.1915
@<TRIPOS>BOND
     1     1     2    1
     2     2     3    1
     3     2     4    1
     4     4     5    1
     5     5     6   ar
     6     6     7   ar
     7     7     8   ar
     8     8    22    1
     9    22    23   am
    10    23    24    2
    11    23    26    1
    12    26    27   ar
    13    27    28   ar
    14    28    29   ar
    15    29    32    1
    16    32    33    1
    17    32    34    1
    18    29    30   ar
    19    30    31   ar
    20     8     9   ar
    21     9    10   ar
    22    10    11    1
    23    11    12    1
    24    12    13    1
    25    13    14    1
    26    14    15    1
    27    14    16    2
    28    11    17    1
    29    17    18    1
    30    18    19    1
    31    17     2    1
    32    10     5   ar
    33    16    11    1
    34    19    17    1
    35    31    26   ar
    36    22    25    1
    37    15    20    1
    38    15    21    1
@<TRIPOS>MOLECULE
*****
 34 38 0 0 0
SMALL
GASTEIGER

@<TRIPOS>ATOM
      1 C         141.9744  141.0323  170.2908 C.3     1  UNL1        0.0437
      2 C         141.0392  140.5217  169.2350 C.3     1  UNL1        0.1352
      3 C         140.4215  139.9004  170.4525 C.3     1  UNL1        0.0437
      4 O         139.8895  139.7955  168.6020 O.3     1  UNL1       -0.4828
      5 C         139.6822  139.8677  167.1181 C.ar    1  UNL1        0.1361
      6 C         138.5325  139.1415  166.4852 C.ar    1  UNL1        0.0379
      7 C         138.3252  139.2137  165.0013 C.ar    1  UNL1        0.0178
      8 C         139.2677  140.0123  164.1504 C.ar    1  UNL1        0.0505
      9 C         140.4175  140.7386  164.7834 C.ar    1  UNL1        0.0153
     10 C         140.6247  140.6663  166.2672 C.ar    1  UNL1        0.0367
     11 C         141.7745  141.3926  166.9002 C.3     1  UNL1        0.1535
     12 C         141.6946  141.5566  165.4113 C.3     1  UNL1        0.2349
     13 O         142.8330  142.4327  164.9798 O.2     1  UNL1       -0.4478
     14 C         143.6165  142.8103  166.2020 C.2     1  UNL1        0.2770
     15 N         144.8394  143.6783  166.2318 N.pl3   1  UNL1       -0.3133
     16 N         142.9622  142.1675  167.3888 N.2     1  UNL1       -0.2204
     17 C         141.9817  141.3203  168.3841 C.3     1  UNL1        0.0597
     18 C         143.1896  142.2007  168.2583 C.3     1  UNL1        0.0058
     19 C         142.7651  141.6979  169.6062 C.3     1  UNL1        0.0058
     20 H         145.1953  144.0563  165.3954 H       1  UNL1        0.1466
     21 H         145.2862  143.8700  167.0879 H       1  UNL1        0.1466
     22 N         139.0605  140.0846  162.6666 N.am    1  UNL1       -0.2791
     23 C         138.3772  141.2752  162.0618 C.2     1  UNL1        0.2688
     24 O         137.9011  142.3934  162.9409 O.2     1  UNL1       -0.2681
     25 H         139.3729  139.3507  162.0896 H       1  UNL1        0.1552
     26 C         138.1700  141.3475  160.5780 C.ar    1  UNL1        0.1538
     27 C         137.7084  140.1350  159.8252 C.ar    1  UNL1        0.1224
     28 N         137.5011  140.2073  158.3413 N.ar    1  UNL1       -0.2393
     29 C         137.7555  141.4921  157.6103 C.ar    1  UNL1        0.1440
     30 C         138.2171  142.7047  158.3631 C.ar    1  UNL1        0.1193
     31 N         138.4243  142.6324  159.8469 N.ar    1  UNL1       -0.2362
     32 C         137.5483  141.5645  156.1265 C.3     1  UNL1        0.3597
     33 F         138.6455  141.1432  155.1945 F       1  UNL1       -0.1915
     34 F         136.2437  142.0581  155.5745 F       1  UNL1       -0.1915
@<TRIPOS>BOND
     1     1     2    1
     2     2     3    1
     3     2     4    1
     4     4     5    1
     5     5     6   ar
     6     6     7   ar
     7     7     8   ar
     8     8    22    1
     9    22    23   am
    10    23    24    2
    11    23    26    1
    12    26    27   ar
    13    27    28   ar
    14    28    29   ar
    15    29    32    1
    16    32    33    1
    17    32    34    1
    18    29    30   ar
    19    30    31   ar
    20     8     9   ar
    21     9    10   ar
    22    10    11    1
    23    11    12    1
    24    12    13    1
    25    13    14    1
    26    14    15    1
    27    14    16    2
    28    11    17    1
    29    17    18    1
    30    18    19    1
    31    17     2    1
    32    10     5   ar
    33    16    11    1
    34    19    17    1
    35    31    26   ar
    36    22    25    1
    37    15    20    1
    38    15    21    1
@<TRIPOS>MOLECULE
*****
 34 38 0 0 0
SMALL
GASTEIGER

@<TRIPOS>ATOM
      1 C         141.7222  141.9968  170.0962 C.3     1  UNL1        0.0437
      2 C         141.0429  142.5618  168.8840 C.3     1  UNL1        0.1352
      3 C         140.5557  143.5232  169.9273 C.3     1  UNL1        0.0437
      4 O         140.1945  143.4605  168.0341 O.3     1  UNL1       -0.4828
      5 C         140.0691  143.2018  166.5619 C.ar    1  UNL1        0.1361
      6 C         139.2206  144.1006  165.7120 C.ar    1  UNL1        0.0379
      7 C         139.0952  143.8418  164.2398 C.ar    1  UNL1        0.0178
      8 C         139.8182  142.6842  163.6175 C.ar    1  UNL1        0.0505
      9 C         140.6667  141.7854  164.4675 C.ar    1  UNL1        0.0153
     10 C         140.7921  142.0442  165.9396 C.ar    1  UNL1        0.0367
     11 C         141.6405  141.1454  166.7896 C.3     1  UNL1        0.1535
     12 C         141.6107  140.7639  165.3391 C.3     1  UNL1        0.2349
     13 O         142.4720  139.5489  165.1617 O.2     1  UNL1       -0.4478
     14 C         143.0343  139.1794  166.5023 C.2     1  UNL1        0.2770
     15 N         143.9497  138.0256  166.7868 N.pl3   1  UNL1       -0.3133
     16 N         142.5204  140.1660  167.5084 N.2     1  UNL1       -0.2204
     17 C         141.7659  141.4042  168.2617 C.3     1  UNL1        0.0597
     18 C         142.6732  140.2170  168.3931 C.3     1  UNL1        0.0058
     19 C         142.3282  141.0347  169.6023 C.3     1  UNL1        0.0058
     20 H         144.2331  137.4302  166.0557 H       1  UNL1        0.1466
     21 H         144.2671  137.8638  167.7045 H       1  UNL1        0.1466
     22 N         139.6928  142.4254  162.1454 N.am    1  UNL1       -0.2791
     23 C         138.4032  141.9060  161.5823 C.2     1  UNL1        0.2688
     24 O         137.2389  141.6454  162.4914 O.2     1  UNL1       -0.2681
     25 H         140.4570  142.5965  161.5487 H       1  UNL1        0.1552
     26 C         138.2778  141.6472  160.1102 C.ar    1  UNL1        0.1538
     27 C         138.1150  140.2437  159.6066 C.ar    1  UNL1        0.1224
     28 N         137.9896  139.9849  158.1344 N.ar    1  UNL1       -0.2393
     29 C         138.0270  141.1297  157.1658 C.ar    1  UNL1        0.1440
     30 C         138.1898  142.5332  157.6694 C.ar    1  UNL1        0.1193
     31 N         138.3152  142.7920  159.1416 N.ar    1  UNL1       -0.2362
     32 C         137.9016  140.8709  155.6937 C.3     1  UNL1        0.3597
     33 F         138.1472  139.4944  155.1505 F       1  UNL1       -0.1915
     34 F         137.5306  141.9886  154.7646 F       1  UNL1       -0.1915
@<TRIPOS>BOND
     1     1     2    1
     2     2     3    1
     3     2     4    1
     4     4     5    1
     5     5     6   ar
     6     6     7   ar
     7     7     8   ar
     8     8    22    1
     9    22    23   am
    10    23    24    2
    11    23    26    1
    12    26    27   ar
    13    27    28   ar
    14    28    29   ar
    15    29    32    1
    16    32    33    1
    17    32    34    1
    18    29    30   ar
    19    30    31   ar
    20     8     9   ar
    21     9    10   ar
    22    10    11    1
    23    11    12    1
    24    12    13    1
    25    13    14    1
    26    14    15    1
    27    14    16    2
    28    11    17    1
    29    17    18    1
    30    18    19    1
    31    17     2    1
    32    10     5   ar
    33    16    11    1
    34    19    17    1
    35    31    26   ar
    36    22    25    1
    37    15    20    1
    38    15    21    1
@<TRIPOS>MOLECULE
*****
 34 38 0 0 0
SMALL
GASTEIGER

@<TRIPOS>ATOM
      1 C         138.6618  139.5741  168.2018 C.3     1  UNL1        0.0437
      2 C         138.8911  139.1965  166.7684 C.3     1  UNL1        0.1352
      3 C         137.6078  138.4645  167.0285 C.3     1  UNL1        0.0437
      4 O         138.6747  138.5646  165.4253 O.3     1  UNL1       -0.4828
      5 C         139.6619  138.7959  164.3198 C.ar    1  UNL1        0.1361
      6 C         139.4455  138.1641  162.9767 C.ar    1  UNL1        0.0379
      7 C         140.4328  138.3953  161.8712 C.ar    1  UNL1        0.0178
      8 C         141.6363  139.2584  162.1089 C.ar    1  UNL1        0.0505
      9 C         141.8527  139.8902  163.4521 C.ar    1  UNL1        0.0153
     10 C         140.8655  139.6590  164.5575 C.ar    1  UNL1        0.0367
     11 C         141.0818  140.2908  165.9007 C.3     1  UNL1        0.1535
     12 C         142.1494  140.6110  164.8967 C.3     1  UNL1        0.2349
     13 O         143.1564  141.5033  165.5596 O.2     1  UNL1       -0.4478
     14 C         142.7114  141.7346  166.9733 C.2     1  UNL1        0.2770
     15 N         143.4236  142.5688  167.9965 N.pl3   1  UNL1       -0.3133
     16 N         141.4293  140.9852  167.1841 N.2     1  UNL1       -0.2204
     17 C         140.0946  140.0595  167.0061 C.3     1  UNL1        0.0597
     18 C         140.9144  140.9226  167.9188 C.3     1  UNL1        0.0058
     19 C         139.6496  140.2908  168.4197 C.3     1  UNL1        0.0058
     20 H         144.2640  143.0245  167.7616 H       1  UNL1        0.1466
     21 H         143.0506  142.6606  168.9030 H       1  UNL1        0.1466
     22 N         142.6235  139.4897  161.0036 N.am    1  UNL1       -0.2791
     23 C         142.6124  140.7848  160.2469 C.2     1  UNL1        0.2688
     24 O         141.6141  141.8486  160.5955 O.2     1  UNL1       -0.2681
     25 H         143.2788  138.7914  160.7747 H       1  UNL1        0.1552
     26 C         143.5996  141.0160  159.1415 C.ar    1  UNL1        0.1538
     27 C         143.8111  139.9648  158.0926 C.ar    1  UNL1        0.1224
     28 N         144.7983  140.1961  156.9872 N.ar    1  UNL1       -0.2393
     29 C         145.5741  141.4786  156.9307 C.ar    1  UNL1        0.1440
     30 C         145.3626  142.5299  157.9795 C.ar    1  UNL1        0.1193
     31 N         144.3754  142.2986  159.0849 N.ar    1  UNL1       -0.2362
     32 C         146.5613  141.7099  155.8253 C.3     1  UNL1        0.3597
     33 F         146.1644  141.4592  154.4006 F       1  UNL1       -0.1915
     34 F         147.9455  142.1918  156.1445 F       1  UNL1       -0.1915
@<TRIPOS>BOND
     1     1     2    1
     2     2     3    1
     3     2     4    1
     4     4     5    1
     5     5     6   ar
     6     6     7   ar
     7     7     8   ar
     8     8    22    1
     9    22    23   am
    10    23    24    2
    11    23    26    1
    12    26    27   ar
    13    27    28   ar
    14    28    29   ar
    15    29    32    1
    16    32    33    1
    17    32    34    1
    18    29    30   ar
    19    30    31   ar
    20     8     9   ar
    21     9    10   ar
    22    10    11    1
    23    11    12    1
    24    12    13    1
    25    13    14    1
    26    14    15    1
    27    14    16    2
    28    11    17    1
    29    17    18    1
    30    18    19    1
    31    17     2    1
    32    10     5   ar
    33    16    11    1
    34    19    17    1
    35    31    26   ar
    36    22    25    1
    37    15    20    1
    38    15    21    1
@<TRIPOS>MOLECULE
*****
 34 38 0 0 0
SMALL
GASTEIGER

@<TRIPOS>ATOM
      1 C         137.7767  142.9813  164.3983 C.3     1  UNL1        0.0437
      2 C         137.9689  142.7820  162.9241 C.3     1  UNL1        0.1352
      3 C         137.6737  144.2524  162.9518 C.3     1  UNL1        0.0437
      4 O         138.0586  143.0934  161.4596 O.3     1  UNL1       -0.4828
      5 C         138.3769  142.0036  160.4792 C.ar    1  UNL1        0.1361
      6 C         138.4666  142.3150  159.0146 C.ar    1  UNL1        0.0379
      7 C         138.7848  141.2251  158.0342 C.ar    1  UNL1        0.0178
      8 C         139.0133  139.8240  158.5184 C.ar    1  UNL1        0.0505
      9 C         138.9236  139.5126  159.9831 C.ar    1  UNL1        0.0153
     10 C         138.6054  140.6024  160.9634 C.ar    1  UNL1        0.0367
     11 C         138.5156  140.2910  162.4280 C.3     1  UNL1        0.1535
     12 C         138.8405  139.1038  161.5706 C.3     1  UNL1        0.2349
     13 O         138.9850  137.9102  162.4674 O.2     1  UNL1       -0.4478
     14 C         138.7495  138.3596  163.8790 C.2     1  UNL1        0.2770
     15 N         138.7959  137.4901  165.1004 N.pl3   1  UNL1       -0.3133
     16 N         138.4594  139.8310  163.8546 N.2     1  UNL1       -0.2204
     17 C         138.1974  141.3808  163.4083 C.3     1  UNL1        0.0597
     18 C         138.2775  140.3921  164.5335 C.3     1  UNL1        0.0058
     19 C         137.9619  141.8302  164.8199 C.3     1  UNL1        0.0058
     20 H         138.9958  136.5300  165.0138 H       1  UNL1        0.1466
     21 H         138.6265  137.8795  165.9886 H       1  UNL1        0.1466
     22 N         139.3315  138.7342  157.5381 N.am    1  UNL1       -0.2791
     23 C         140.6971  138.1138  157.5234 C.2     1  UNL1        0.2688
     24 O         141.7446  138.5833  158.4890 O.2     1  UNL1       -0.2681
     25 H         138.6440  138.4260  156.9044 H       1  UNL1        0.1552
     26 C         141.0153  137.0240  156.5431 C.ar    1  UNL1        0.1538
     27 C         140.1068  136.7768  155.3755 C.ar    1  UNL1        0.1224
     28 N         140.4251  135.6869  154.3951 N.ar    1  UNL1       -0.2393
     29 C         141.6518  134.8444  154.5825 C.ar    1  UNL1        0.1440
     30 C         142.5604  135.0916  155.7501 C.ar    1  UNL1        0.1193
     31 N         142.2422  136.1814  156.7304 N.ar    1  UNL1       -0.2362
     32 C         141.9700  133.7546  153.6022 C.3     1  UNL1        0.3597
     33 F         143.0877  132.7949  153.8843 F       1  UNL1       -0.1915
     34 F         141.1705  133.6245  152.3396 F       1  UNL1       -0.1915
@<TRIPOS>BOND
     1     1     2    1
     2     2     3    1
     3     2     4    1
     4     4     5    1
     5     5     6   ar
     6     6     7   ar
     7     7     8   ar
     8     8    22    1
     9    22    23   am
    10    23    24    2
    11    23    26    1
    12    26    27   ar
    13    27    28   ar
    14    28    29   ar
    15    29    32    1
    16    32    33    1
    17    32    34    1
    18    29    30   ar
    19    30    31   ar
    20     8     9   ar
    21     9    10   ar
    22    10    11    1
    23    11    12    1
    24    12    13    1
    25    13    14    1
    26    14    15    1
    27    14    16    2
    28    11    17    1
    29    17    18    1
    30    18    19    1
    31    17     2    1
    32    10     5   ar
    33    16    11    1
    34    19    17    1
    35    31    26   ar
    36    22    25    1
    37    15    20    1
    38    15    21    1
@<TRIPOS>MOLECULE
*****
 34 38 0 0 0
SMALL
GASTEIGER

@<TRIPOS>ATOM
      1 C         140.0186  141.5116  169.9244 C.3     1  UNL1        0.0437
      2 C         139.6080  140.5657  168.8351 C.3     1  UNL1        0.1352
      3 C         138.5670  140.2434  169.8659 C.3     1  UNL1        0.0437
      4 O         138.8359  139.5079  168.1037 O.3     1  UNL1       -0.4828
      5 C         139.2474  139.1009  166.7198 C.ar    1  UNL1        0.1361
      6 C         138.4753  138.0431  165.9884 C.ar    1  UNL1        0.0379
      7 C         138.8867  137.6361  164.6045 C.ar    1  UNL1        0.0178
      8 C         140.0702  138.2869  163.9520 C.ar    1  UNL1        0.0505
      9 C         140.8423  139.3447  164.6835 C.ar    1  UNL1        0.0153
     10 C         140.4309  139.7517  166.0673 C.ar    1  UNL1        0.0367
     11 C         141.2030  140.8095  166.7988 C.3     1  UNL1        0.1535
     12 C         141.7302  140.5078  165.4272 C.3     1  UNL1        0.2349
     13 O         142.9201  141.3881  165.1841 O.2     1  UNL1       -0.4478
     14 C         143.1284  142.2338  166.4054 C.2     1  UNL1        0.2770
     15 N         144.2083  143.2574  166.5953 N.pl3   1  UNL1       -0.3133
     16 N         142.0671  141.8762  167.4032 N.2     1  UNL1       -0.2204
     17 C         140.7916  141.2165  168.1826 C.3     1  UNL1        0.0597
     18 C         141.9206  142.2029  168.2282 C.3     1  UNL1        0.0058
     19 C         140.9998  142.0622  169.4038 C.3     1  UNL1        0.0058
     20 H         144.8623  143.4218  165.8780 H       1  UNL1        0.1466
     21 H         144.2631  143.7648  167.4372 H       1  UNL1        0.1466
     22 N         140.4817  137.8799  162.5682 N.am    1  UNL1       -0.2791
     23 C         140.3272  138.8407  161.4267 C.2     1  UNL1        0.2688
     24 O         139.7612  140.2085  161.6691 O.2     1  UNL1       -0.2681
     25 H         140.8532  136.9822  162.4091 H       1  UNL1        0.1552
     26 C         140.7386  138.4338  160.0429 C.ar    1  UNL1        0.1538
     27 C         139.7259  138.4071  158.9367 C.ar    1  UNL1        0.1224
     28 N         140.1374  138.0000  157.5528 N.ar    1  UNL1       -0.2393
     29 C         141.5616  137.6198  157.2752 C.ar    1  UNL1        0.1440
     30 C         142.5743  137.6465  158.3814 C.ar    1  UNL1        0.1193
     31 N         142.1628  138.0534  159.7652 N.ar    1  UNL1       -0.2362
     32 C         141.9730  137.2128  155.8914 C.3     1  UNL1        0.3597
     33 F         143.2184  136.4021  155.6871 F       1  UNL1       -0.1915
     34 F         141.1390  137.6165  154.7117 F       1  UNL1       -0.1915
@<TRIPOS>BOND
     1     1     2    1
     2     2     3    1
     3     2     4    1
     4     4     5    1
     5     5     6   ar
     6     6     7   ar
     7     7     8   ar
     8     8    22    1
     9    22    23   am
    10    23    24    2
    11    23    26    1
    12    26    27   ar
    13    27    28   ar
    14    28    29   ar
    15    29    32    1
    16    32    33    1
    17    32    34    1
    18    29    30   ar
    19    30    31   ar
    20     8     9   ar
    21     9    10   ar
    22    10    11    1
    23    11    12    1
    24    12    13    1
    25    13    14    1
    26    14    15    1
    27    14    16    2
    28    11    17    1
    29    17    18    1
    30    18    19    1
    31    17     2    1
    32    10     5   ar
    33    16    11    1
    34    19    17    1
    35    31    26   ar
    36    22    25    1
    37    15    20    1
    38    15    21    1
