@<TRIPOS>MOLECULE
*****
 37 41 0 0 0
SMALL
GASTEIGER

@<TRIPOS>ATOM
      1 C         137.9476  140.3334  161.8615 C.3     1  UNL1        0.0570
      2 C         138.1499  141.5772  161.0479 C.3     1  UNL1        0.0331
      3 C         138.1230  142.9213  161.7132 C.3     1  UNL1        0.0735
      4 N         137.8940  143.0216  163.1922 N.3     1  UNL1       -0.2711
      5 C         137.6917  141.7778  164.0059 C.3     1  UNL1        0.0735
      6 C         137.7186  140.4337  163.3405 C.3     1  UNL1        0.0331
      7 N         137.9744  138.9894  161.1962 N.3     1  UNL1       -0.2934
      8 H         137.4984  138.3408  161.8233 H       1  UNL1        0.1236
      9 C         139.2860  138.3577  160.8342 C.3     1  UNL1        0.1152
     10 O         146.0387  141.6256  162.9486 O.2     1  UNL1       -0.2707
     11 C         144.9488  140.6237  163.1896 C.2     1  UNL1        0.2718
     12 C         145.0197  139.7091  164.3764 C.3     1  UNL1        0.2898
     13 O         143.9298  138.7072  164.6174 O.3     1  UNL1       -0.4628
     14 C         142.7688  138.6198  163.6716 C.ar    1  UNL1        0.1708
     15 C         141.6789  137.6179  163.9126 C.ar    1  UNL1        0.0411
     16 C         140.5179  137.5305  162.9668 C.ar    1  UNL1        0.0193
     17 C         140.4469  138.4451  161.7800 C.ar    1  UNL1        0.0765
     18 N         141.5369  139.4470  161.5390 N.ar    1  UNL1       -0.2304
     19 C         142.6979  139.5344  162.4848 C.ar    1  UNL1        0.1682
     20 N         143.7878  140.5363  162.2438 N.am    1  UNL1       -0.2639
     21 H         143.7412  141.1366  161.4649 H       1  UNL1        0.1565
     22 C         137.8672  144.3657  163.8575 C.3     1  UNL1        0.0942
     23 C         138.9776  144.7669  164.7827 C.3     1  UNL1        0.1157
     24 N         140.3734  144.2755  164.5364 N.am    1  UNL1       -0.2515
     25 C         141.1579  144.7990  163.3700 C.2     1  UNL1        0.2740
     26 O         140.5467  145.8138  162.4499 O.2     1  UNL1       -0.2705
     27 C         142.5536  144.3077  163.1237 C.3     1  UNL1        0.2900
     28 O         143.1648  143.2929  164.0439 O.3     1  UNL1       -0.4643
     29 C         142.3803  142.7694  165.2103 C.ar    1  UNL1        0.1528
     30 C         142.9915  141.7546  166.1304 C.ar    1  UNL1        0.0382
     31 C         142.2069  141.2312  167.2968 C.ar    1  UNL1        0.0043
     32 C         140.8113  141.7224  167.5431 C.ar    1  UNL1        0.0154
     33 C         140.2000  142.7373  166.6229 C.ar    1  UNL1        0.0191
     34 C         140.9845  143.2608  165.4565 C.ar    1  UNL1        0.0882
     35 C         140.0267  141.1989  168.7095 C.2     1  UNL1        0.0729
     36 O         139.5153  139.7889  168.6972 O.co2   1  UNL1       -0.5446
     37 O         139.7537  142.0855  169.8883 O.co2   1  UNL1       -0.5446
@<TRIPOS>UNITY_ATOM_ATTR
36 1
charge -1
@<TRIPOS>BOND
     1    10    11    2
     2    11    12    1
     3    12    13    1
     4    13    14    1
     5    14    15   ar
     6    15    16   ar
     7    16    17   ar
     8    17     9    1
     9     9     7    1
    10     7     1    1
    11     1     2    1
    12     2     3    1
    13     3     4    1
    14     4    22    1
    15    22    23    1
    16    23    24    1
    17    24    25   am
    18    25    26    2
    19    25    27    1
    20    27    28    1
    21    28    29    1
    22    29    30   ar
    23    30    31   ar
    24    31    32   ar
    25    32    35    1
    26    35    36   ar
    27    35    37   ar
    28    32    33   ar
    29    33    34   ar
    30     4     5    1
    31     5     6    1
    32    17    18   ar
    33    18    19   ar
    34    19    20    1
    35    20    11   am
    36    19    14   ar
    37     6     1    1
    38    34    24    1
    39    34    29   ar
    40     7     8    1
    41    20    21    1
@<TRIPOS>MOLECULE
*****
 37 41 0 0 0
SMALL
GASTEIGER

@<TRIPOS>ATOM
      1 C         142.7363  138.4141  162.5030 C.3     1  UNL1        0.0570
      2 C         143.3240  139.3442  161.4835 C.3     1  UNL1        0.0331
      3 C         144.3267  140.3786  161.9017 C.3     1  UNL1        0.0735
      4 N         144.7416  140.4828  163.3394 N.3     1  UNL1       -0.2711
      5 C         144.1539  139.5526  164.3589 C.3     1  UNL1        0.0735
      6 C         143.1513  138.5183  163.9407 C.3     1  UNL1        0.0331
      7 N         141.7337  137.3798  162.0848 N.3     1  UNL1       -0.2934
      8 H         142.1297  136.8944  161.2798 H       1  UNL1        0.1236
      9 C         140.3444  137.7945  161.7001 C.3     1  UNL1        0.1152
     10 O         138.2542  145.2879  162.1787 O.2     1  UNL1       -0.2707
     11 C         138.2692  143.9040  162.7571 C.2     1  UNL1        0.2718
     12 C         137.6026  143.6340  164.0733 C.3     1  UNL1        0.2898
     13 O         137.6176  142.2500  164.6517 O.3     1  UNL1       -0.4628
     14 C         138.2993  141.1361  163.9138 C.ar    1  UNL1        0.1708
     15 C         138.3143  139.7522  164.4922 C.ar    1  UNL1        0.0411
     16 C         138.9960  138.6383  163.7543 C.ar    1  UNL1        0.0193
     17 C         139.6627  138.9083  162.4380 C.ar    1  UNL1        0.0765
     18 N         139.6477  140.2923  161.8596 N.ar    1  UNL1       -0.2304
     19 C         138.9659  141.4062  162.5976 C.ar    1  UNL1        0.1682
     20 N         138.9509  142.7901  162.0192 N.am    1  UNL1       -0.2639
     21 H         139.3884  142.9673  161.1552 H       1  UNL1        0.1565
     22 C         145.7443  141.5170  163.7576 C.3     1  UNL1        0.0942
     23 C         145.2965  142.7338  164.5117 C.3     1  UNL1        0.1157
     24 N         143.8766  143.2047  164.4006 N.am    1  UNL1       -0.2515
     25 C         143.4508  144.0323  163.2242 C.2     1  UNL1        0.2740
     26 O         144.4449  144.3890  162.1590 O.2     1  UNL1       -0.2705
     27 C         142.0310  144.5032  163.1131 C.3     1  UNL1        0.2900
     28 O         141.0369  144.1465  164.1783 O.3     1  UNL1       -0.4643
     29 C         141.4627  143.3189  165.3547 C.ar    1  UNL1        0.1528
     30 C         140.4687  142.9622  166.4198 C.ar    1  UNL1        0.0382
     31 C         140.8945  142.1346  167.5962 C.ar    1  UNL1        0.0043
     32 C         142.3143  141.6638  167.7074 C.ar    1  UNL1        0.0154
     33 C         143.3084  142.0204  166.6421 C.ar    1  UNL1        0.0191
     34 C         142.8826  142.8480  165.4658 C.ar    1  UNL1        0.0882
     35 C         142.7401  140.8362  168.8837 C.2     1  UNL1        0.0729
     36 O         142.8695  139.3481  168.7463 O.co2   1  UNL1       -0.5446
     37 O         143.0364  141.4967  170.1975 O.co2   1  UNL1       -0.5446
@<TRIPOS>UNITY_ATOM_ATTR
36 1
charge -1
@<TRIPOS>BOND
     1    10    11    2
     2    11    12    1
     3    12    13    1
     4    13    14    1
     5    14    15   ar
     6    15    16   ar
     7    16    17   ar
     8    17     9    1
     9     9     7    1
    10     7     1    1
    11     1     2    1
    12     2     3    1
    13     3     4    1
    14     4    22    1
    15    22    23    1
    16    23    24    1
    17    24    25   am
    18    25    26    2
    19    25    27    1
    20    27    28    1
    21    28    29    1
    22    29    30   ar
    23    30    31   ar
    24    31    32   ar
    25    32    35    1
    26    35    36   ar
    27    35    37   ar
    28    32    33   ar
    29    33    34   ar
    30     4     5    1
    31     5     6    1
    32    17    18   ar
    33    18    19   ar
    34    19    20    1
    35    20    11   am
    36    19    14   ar
    37     6     1    1
    38    34    24    1
    39    34    29   ar
    40     7     8    1
    41    20    21    1
@<TRIPOS>MOLECULE
*****
 37 41 0 0 0
SMALL
GASTEIGER

@<TRIPOS>ATOM
      1 C         144.3213  139.7734  163.2883 C.3     1  UNL1        0.0570
      2 C         144.0505  139.4513  164.7280 C.3     1  UNL1        0.0331
      3 C         142.8302  138.6640  165.1037 C.3     1  UNL1        0.0735
      4 N         141.8807  138.1989  164.0397 N.3     1  UNL1       -0.2711
      5 C         142.1516  138.5211  162.5999 C.3     1  UNL1        0.0735
      6 C         143.3718  139.3083  162.2242 C.3     1  UNL1        0.0331
      7 N         145.5416  140.5607  162.9126 N.3     1  UNL1       -0.2934
      8 H         146.3404  140.0821  163.3289 H       1  UNL1        0.1236
      9 C         145.6513  142.0053  163.3015 C.3     1  UNL1        0.1152
     10 O         140.2842  145.4642  158.8317 O.2     1  UNL1       -0.2707
     11 C         140.8859  145.2174  160.1833 C.2     1  UNL1        0.2718
     12 C         140.3005  145.8769  161.3967 C.3     1  UNL1        0.2898
     13 O         140.9022  145.6301  162.7484 O.3     1  UNL1       -0.4628
     14 C         142.0895  144.7239  162.8867 C.ar    1  UNL1        0.1708
     15 C         142.6913  144.4772  164.2383 C.ar    1  UNL1        0.0411
     16 C         143.8785  143.5710  164.3766 C.ar    1  UNL1        0.0193
     17 C         144.4640  142.9115  163.1632 C.ar    1  UNL1        0.0765
     18 N         143.8623  143.1582  161.8116 N.ar    1  UNL1       -0.2304
     19 C         142.6750  144.0645  161.6733 C.ar    1  UNL1        0.1682
     20 N         142.0732  144.3112  160.3216 N.am    1  UNL1       -0.2639
     21 H         142.4575  143.8784  159.5253 H       1  UNL1        0.1565
     22 C         140.6605  137.4117  164.4154 C.3     1  UNL1        0.0942
     23 C         139.4132  138.1231  164.8490 C.3     1  UNL1        0.1157
     24 N         138.9579  139.3516  164.1185 N.am    1  UNL1       -0.2515
     25 C         138.2522  139.2225  162.8012 C.2     1  UNL1        0.2740
     26 O         138.0017  137.8649  162.2144 O.2     1  UNL1       -0.2705
     27 C         137.7969  140.4509  162.0707 C.3     1  UNL1        0.2900
     28 O         138.0474  141.8085  162.6575 O.3     1  UNL1       -0.4643
     29 C         138.7531  141.9376  163.9748 C.ar    1  UNL1        0.1528
     30 C         139.0036  143.2951  164.5616 C.ar    1  UNL1        0.0382
     31 C         139.7093  143.4242  165.8789 C.ar    1  UNL1        0.0043
     32 C         140.1646  142.1958  166.6094 C.ar    1  UNL1        0.0154
     33 C         139.9141  140.8382  166.0226 C.ar    1  UNL1        0.0191
     34 C         139.2084  140.7091  164.7053 C.ar    1  UNL1        0.0882
     35 C         140.8703  142.3249  167.9267 C.2     1  UNL1        0.0729
     36 O         142.0252  141.4241  168.2503 O.co2   1  UNL1       -0.5446
     37 O         140.4211  143.3548  168.9205 O.co2   1  UNL1       -0.5446
@<TRIPOS>UNITY_ATOM_ATTR
36 1
charge -1
@<TRIPOS>BOND
     1    10    11    2
     2    11    12    1
     3    12    13    1
     4    13    14    1
     5    14    15   ar
     6    15    16   ar
     7    16    17   ar
     8    17     9    1
     9     9     7    1
    10     7     1    1
    11     1     2    1
    12     2     3    1
    13     3     4    1
    14     4    22    1
    15    22    23    1
    16    23    24    1
    17    24    25   am
    18    25    26    2
    19    25    27    1
    20    27    28    1
    21    28    29    1
    22    29    30   ar
    23    30    31   ar
    24    31    32   ar
    25    32    35    1
    26    35    36   ar
    27    35    37   ar
    28    32    33   ar
    29    33    34   ar
    30     4     5    1
    31     5     6    1
    32    17    18   ar
    33    18    19   ar
    34    19    20    1
    35    20    11   am
    36    19    14   ar
    37     6     1    1
    38    34    24    1
    39    34    29   ar
    40     7     8    1
    41    20    21    1
@<TRIPOS>MOLECULE
*****
 37 41 0 0 0
SMALL
GASTEIGER

@<TRIPOS>ATOM
      1 C         144.0845  139.6238  163.1625 C.3     1  UNL1        0.0570
      2 C         143.0021  139.3917  162.1503 C.3     1  UNL1        0.0331
      3 C         141.7482  138.6693  162.5454 C.3     1  UNL1        0.0735
      4 N         141.5768  138.1791  163.9526 N.3     1  UNL1       -0.2711
      5 C         142.6593  138.4113  164.9648 C.3     1  UNL1        0.0735
      6 C         143.9131  139.1337  164.5697 C.3     1  UNL1        0.0331
      7 N         145.3383  140.3462  162.7674 N.3     1  UNL1       -0.2934
      8 H         146.1128  139.8610  163.2203 H       1  UNL1        0.1236
      9 C         145.4958  141.8038  163.0846 C.3     1  UNL1        0.1152
     10 O         140.1902  145.7405  158.9489 O.2     1  UNL1       -0.2707
     11 C         140.7691  145.3403  160.2736 C.2     1  UNL1        0.2718
     12 C         140.1584  145.8522  161.5444 C.3     1  UNL1        0.2898
     13 O         140.7373  145.4521  162.8690 O.3     1  UNL1       -0.4628
     14 C         141.9269  144.5400  162.9229 C.ar    1  UNL1        0.1708
     15 C         142.5058  144.1399  164.2476 C.ar    1  UNL1        0.0411
     16 C         143.6954  143.2278  164.3015 C.ar    1  UNL1        0.0193
     17 C         144.3062  142.7159  163.0307 C.ar    1  UNL1        0.0765
     18 N         143.7273  143.1160  161.7060 N.ar    1  UNL1       -0.2304
     19 C         142.5376  144.0281  161.6522 C.ar    1  UNL1        0.1682
     20 N         141.9587  144.4283  160.3275 N.am    1  UNL1       -0.2639
     21 H         142.3596  144.0923  159.4934 H       1  UNL1        0.1565
     22 C         140.3230  137.4568  164.3477 C.3     1  UNL1        0.0942
     23 C         139.1617  138.2223  164.9091 C.3     1  UNL1        0.1157
     24 N         139.1324  139.7189  164.8118 N.am    1  UNL1       -0.2515
     25 C         138.5148  140.3807  163.6157 C.2     1  UNL1        0.2740
     26 O         137.9265  139.5459  162.5170 O.2     1  UNL1       -0.2705
     27 C         138.4855  141.8772  163.5183 C.3     1  UNL1        0.2900
     28 O         139.0738  142.7120  164.6169 O.3     1  UNL1       -0.4643
     29 C         139.6914  142.0502  165.8130 C.ar    1  UNL1        0.1528
     30 C         140.2797  142.8850  166.9117 C.ar    1  UNL1        0.0382
     31 C         140.8973  142.2232  168.1078 C.ar    1  UNL1        0.0043
     32 C         140.9266  140.7267  168.2052 C.ar    1  UNL1        0.0154
     33 C         140.3383  139.8919  167.1065 C.ar    1  UNL1        0.0191
     34 C         139.7207  140.5536  165.9104 C.ar    1  UNL1        0.0882
     35 C         141.5442  140.0649  169.4013 C.2     1  UNL1        0.0729
     36 O         140.6713  139.4078  170.4290 O.co2   1  UNL1       -0.5446
     37 O         143.0348  140.0602  169.5696 O.co2   1  UNL1       -0.5446
@<TRIPOS>UNITY_ATOM_ATTR
36 1
charge -1
@<TRIPOS>BOND
     1    10    11    2
     2    11    12    1
     3    12    13    1
     4    13    14    1
     5    14    15   ar
     6    15    16   ar
     7    16    17   ar
     8    17     9    1
     9     9     7    1
    10     7     1    1
    11     1     2    1
    12     2     3    1
    13     3     4    1
    14     4    22    1
    15    22    23    1
    16    23    24    1
    17    24    25   am
    18    25    26    2
    19    25    27    1
    20    27    28    1
    21    28    29    1
    22    29    30   ar
    23    30    31   ar
    24    31    32   ar
    25    32    35    1
    26    35    36   ar
    27    35    37   ar
    28    32    33   ar
    29    33    34   ar
    30     4     5    1
    31     5     6    1
    32    17    18   ar
    33    18    19   ar
    34    19    20    1
    35    20    11   am
    36    19    14   ar
    37     6     1    1
    38    34    24    1
    39    34    29   ar
    40     7     8    1
    41    20    21    1
@<TRIPOS>MOLECULE
*****
 37 41 0 0 0
SMALL
GASTEIGER

@<TRIPOS>ATOM
      1 C         140.9777  144.6449  164.0781 C.3     1  UNL1        0.0570
      2 C         142.0185  145.1134  163.1049 C.3     1  UNL1        0.0331
      3 C         143.3919  144.5105  163.1276 C.3     1  UNL1        0.0735
      4 N         143.7243  143.4391  164.1234 N.3     1  UNL1       -0.2711
      5 C         142.6833  142.9706  165.0966 C.3     1  UNL1        0.0735
      6 C         141.3101  143.5735  165.0739 C.3     1  UNL1        0.0331
      7 N         139.6044  145.2478  164.0554 N.3     1  UNL1       -0.2934
      8 H         139.2517  145.2131  165.0119 H       1  UNL1        0.1236
      9 C         138.5399  144.6561  163.1797 C.3     1  UNL1        0.1152
     10 O         139.6563  138.2564  158.8730 O.2     1  UNL1       -0.2707
     11 C         139.1896  138.9017  160.1441 C.2     1  UNL1        0.2718
     12 C         138.6284  138.0590  161.2508 C.3     1  UNL1        0.2898
     13 O         138.1617  138.7043  162.5220 O.3     1  UNL1       -0.4628
     14 C         138.2563  140.1922  162.6864 C.ar    1  UNL1        0.1708
     15 C         137.7896  140.8375  163.9576 C.ar    1  UNL1        0.0411
     16 C         137.8841  142.3254  164.1220 C.ar    1  UNL1        0.0193
     17 C         138.4453  143.1681  163.0153 C.ar    1  UNL1        0.0765
     18 N         138.9120  142.5229  161.7441 N.ar    1  UNL1       -0.2304
     19 C         138.8175  141.0349  161.5797 C.ar    1  UNL1        0.1682
     20 N         139.2842  140.3896  160.3085 N.am    1  UNL1       -0.2639
     21 H         139.6525  140.9427  159.5822 H       1  UNL1        0.1565
     22 C         145.0976  142.8362  164.1461 C.3     1  UNL1        0.0942
     23 C         145.4420  141.7194  163.2059 C.3     1  UNL1        0.1157
     24 N         144.3500  140.9454  162.5288 N.am    1  UNL1       -0.2515
     25 C         143.9829  141.2532  161.1073 C.2     1  UNL1        0.2740
     26 O         144.7079  142.3351  160.3630 O.2     1  UNL1       -0.2705
     27 C         142.8910  140.4792  160.4302 C.3     1  UNL1        0.2900
     28 O         142.1660  139.3973  161.1745 O.3     1  UNL1       -0.4643
     29 C         142.5330  139.0895  162.5960 C.ar    1  UNL1        0.1528
     30 C         141.8081  138.0076  163.3403 C.ar    1  UNL1        0.0382
     31 C         142.1752  137.6998  164.7617 C.ar    1  UNL1        0.0043
     32 C         143.2671  138.4738  165.4389 C.ar    1  UNL1        0.0154
     33 C         143.9921  139.5557  164.6945 C.ar    1  UNL1        0.0191
     34 C         143.6251  139.8635  163.2731 C.ar    1  UNL1        0.0882
     35 C         143.6341  138.1659  166.8603 C.2     1  UNL1        0.0729
     36 O         144.5778  137.0403  167.1643 O.co2   1  UNL1       -0.5446
     37 O         143.0574  138.9837  167.9778 O.co2   1  UNL1       -0.5446
@<TRIPOS>UNITY_ATOM_ATTR
36 1
charge -1
@<TRIPOS>BOND
     1    10    11    2
     2    11    12    1
     3    12    13    1
     4    13    14    1
     5    14    15   ar
     6    15    16   ar
     7    16    17   ar
     8    17     9    1
     9     9     7    1
    10     7     1    1
    11     1     2    1
    12     2     3    1
    13     3     4    1
    14     4    22    1
    15    22    23    1
    16    23    24    1
    17    24    25   am
    18    25    26    2
    19    25    27    1
    20    27    28    1
    21    28    29    1
    22    29    30   ar
    23    30    31   ar
    24    31    32   ar
    25    32    35    1
    26    35    36   ar
    27    35    37   ar
    28    32    33   ar
    29    33    34   ar
    30     4     5    1
    31     5     6    1
    32    17    18   ar
    33    18    19   ar
    34    19    20    1
    35    20    11   am
    36    19    14   ar
    37     6     1    1
    38    34    24    1
    39    34    29   ar
    40     7     8    1
    41    20    21    1
@<TRIPOS>MOLECULE
*****
 37 41 0 0 0
SMALL
GASTEIGER

@<TRIPOS>ATOM
      1 C         139.3612  137.6408  163.9039 C.3     1  UNL1        0.0570
      2 C         138.4854  138.3875  162.9420 C.3     1  UNL1        0.0331
      3 C         139.0188  138.7896  161.5989 C.3     1  UNL1        0.0735
      4 N         140.4280  138.4450  161.2178 N.3     1  UNL1       -0.2711
      5 C         141.3039  137.6982  162.1798 C.3     1  UNL1        0.0735
      6 C         140.7704  137.2962  163.5228 C.3     1  UNL1        0.0331
      7 N         138.8278  137.2387  165.2469 N.3     1  UNL1       -0.2934
      8 H         138.1973  136.4524  165.0900 H       1  UNL1        0.1236
      9 C         138.0798  138.2328  166.0851 C.3     1  UNL1        0.1152
     10 O         140.5136  142.2330  172.3161 O.2     1  UNL1       -0.2707
     11 C         140.4220  142.0771  170.8271 C.2     1  UNL1        0.2718
     12 C         141.0501  143.0985  169.9259 C.3     1  UNL1        0.2898
     13 O         140.9585  142.9426  168.4369 O.3     1  UNL1       -0.4628
     14 C         140.2388  141.7652  167.8489 C.ar    1  UNL1        0.1708
     15 C         140.1472  141.6092  166.3599 C.ar    1  UNL1        0.0411
     16 C         139.4276  140.4318  165.7719 C.ar    1  UNL1        0.0193
     17 C         138.7995  139.4102  166.6731 C.ar    1  UNL1        0.0765
     18 N         138.8911  139.5662  168.1621 N.ar    1  UNL1       -0.2304
     19 C         139.6108  140.7437  168.7501 C.ar    1  UNL1        0.1682
     20 N         139.7024  140.8996  170.2391 N.am    1  UNL1       -0.2639
     21 H         139.2902  140.2292  170.8306 H       1  UNL1        0.1565
     22 C         140.9615  138.8471  159.8748 C.3     1  UNL1        0.0942
     23 C         141.7752  140.0994  159.7353 C.3     1  UNL1        0.1157
     24 N         142.5723  140.6094  160.8992 N.am    1  UNL1       -0.2515
     25 C         143.9337  140.0459  161.1804 C.2     1  UNL1        0.2740
     26 O         144.4980  138.9724  160.2977 O.2     1  UNL1       -0.2705
     27 C         144.7308  140.5559  162.3442 C.3     1  UNL1        0.2900
     28 O         144.1664  141.6294  163.2270 O.3     1  UNL1       -0.4643
     29 C         142.8051  142.1929  162.9458 C.ar    1  UNL1        0.1528
     30 C         142.2407  143.2664  163.8284 C.ar    1  UNL1        0.0382
     31 C         140.8793  143.8299  163.5472 C.ar    1  UNL1        0.0043
     32 C         140.0823  143.3199  162.3834 C.ar    1  UNL1        0.0154
     33 C         140.6466  142.2464  161.5007 C.ar    1  UNL1        0.0191
     34 C         142.0080  141.6829  161.7819 C.ar    1  UNL1        0.0882
     35 C         138.7209  143.8834  162.1022 C.2     1  UNL1        0.0729
     36 O         137.6225  142.9844  161.6173 O.co2   1  UNL1       -0.5446
     37 O         138.4579  145.3461  162.3060 O.co2   1  UNL1       -0.5446
@<TRIPOS>UNITY_ATOM_ATTR
36 1
charge -1
@<TRIPOS>BOND
     1    10    11    2
     2    11    12    1
     3    12    13    1
     4    13    14    1
     5    14    15   ar
     6    15    16   ar
     7    16    17   ar
     8    17     9    1
     9     9     7    1
    10     7     1    1
    11     1     2    1
    12     2     3    1
    13     3     4    1
    14     4    22    1
    15    22    23    1
    16    23    24    1
    17    24    25   am
    18    25    26    2
    19    25    27    1
    20    27    28    1
    21    28    29    1
    22    29    30   ar
    23    30    31   ar
    24    31    32   ar
    25    32    35    1
    26    35    36   ar
    27    35    37   ar
    28    32    33   ar
    29    33    34   ar
    30     4     5    1
    31     5     6    1
    32    17    18   ar
    33    18    19   ar
    34    19    20    1
    35    20    11   am
    36    19    14   ar
    37     6     1    1
    38    34    24    1
    39    34    29   ar
    40     7     8    1
    41    20    21    1
@<TRIPOS>MOLECULE
*****
 37 41 0 0 0
SMALL
GASTEIGER

@<TRIPOS>ATOM
      1 C         141.9613  138.1727  162.0834 C.3     1  UNL1        0.0570
      2 C         141.1830  139.3477  161.5699 C.3     1  UNL1        0.0331
      3 C         141.8970  140.4890  160.9084 C.3     1  UNL1        0.0735
      4 N         143.3893  140.4554  160.7604 N.3     1  UNL1       -0.2711
      5 C         144.1676  139.2804  161.2740 C.3     1  UNL1        0.0735
      6 C         143.4536  138.1391  161.9355 C.3     1  UNL1        0.0331
      7 N         141.2473  137.0314  162.7449 N.3     1  UNL1       -0.2934
      8 H         140.4979  136.7476  162.1139 H       1  UNL1        0.1236
      9 C         140.6268  137.2180  164.0978 C.3     1  UNL1        0.1152
     10 O         140.0090  143.6040  168.5235 O.2     1  UNL1       -0.2707
     11 C         140.8172  142.4439  168.0225 C.2     1  UNL1        0.2718
     12 C         142.2276  142.2524  168.4957 C.3     1  UNL1        0.2898
     13 O         143.0358  141.0923  167.9947 O.3     1  UNL1       -0.4628
     14 C         142.4336  140.1238  167.0205 C.ar    1  UNL1        0.1708
     15 C         143.2418  138.9637  166.5195 C.ar    1  UNL1        0.0411
     16 C         142.6395  137.9951  165.5453 C.ar    1  UNL1        0.0193
     17 C         141.2290  138.1866  165.0720 C.ar    1  UNL1        0.0765
     18 N         140.4208  139.3467  165.5730 N.ar    1  UNL1       -0.2304
     19 C         141.0231  140.3153  166.5473 C.ar    1  UNL1        0.1682
     20 N         140.2149  141.4754  167.0483 N.am    1  UNL1       -0.2639
     21 H         139.2892  141.6010  166.7377 H       1  UNL1        0.1565
     22 C         144.1033  141.5967  160.0989 C.3     1  UNL1        0.0942
     23 C         144.5642  142.7674  160.9157 C.3     1  UNL1        0.1157
     24 N         144.1203  142.9083  162.3416 N.am    1  UNL1       -0.2515
     25 C         144.9518  142.3277  163.4468 C.2     1  UNL1        0.2740
     26 O         146.2272  141.6060  163.1260 O.2     1  UNL1       -0.2705
     27 C         144.5080  142.4686  164.8726 C.3     1  UNL1        0.2900
     28 O         143.2327  143.1902  165.1934 O.3     1  UNL1       -0.4643
     29 C         142.4012  143.7709  164.0882 C.ar    1  UNL1        0.1528
     30 C         141.1259  144.4925  164.4089 C.ar    1  UNL1        0.0382
     31 C         140.2944  145.0732  163.3037 C.ar    1  UNL1        0.0043
     32 C         140.7382  144.9322  161.8778 C.ar    1  UNL1        0.0154
     33 C         142.0135  144.2106  161.5571 C.ar    1  UNL1        0.0191
     34 C         142.8450  143.6299  162.6623 C.ar    1  UNL1        0.0882
     35 C         139.9067  145.5129  160.7726 C.2     1  UNL1        0.0729
     36 O         139.0745  146.7355  161.0231 O.co2   1  UNL1       -0.5446
     37 O         139.9074  144.8709  159.4169 O.co2   1  UNL1       -0.5446
@<TRIPOS>UNITY_ATOM_ATTR
36 1
charge -1
@<TRIPOS>BOND
     1    10    11    2
     2    11    12    1
     3    12    13    1
     4    13    14    1
     5    14    15   ar
     6    15    16   ar
     7    16    17   ar
     8    17     9    1
     9     9     7    1
    10     7     1    1
    11     1     2    1
    12     2     3    1
    13     3     4    1
    14     4    22    1
    15    22    23    1
    16    23    24    1
    17    24    25   am
    18    25    26    2
    19    25    27    1
    20    27    28    1
    21    28    29    1
    22    29    30   ar
    23    30    31   ar
    24    31    32   ar
    25    32    35    1
    26    35    36   ar
    27    35    37   ar
    28    32    33   ar
    29    33    34   ar
    30     4     5    1
    31     5     6    1
    32    17    18   ar
    33    18    19   ar
    34    19    20    1
    35    20    11   am
    36    19    14   ar
    37     6     1    1
    38    34    24    1
    39    34    29   ar
    40     7     8    1
    41    20    21    1
@<TRIPOS>MOLECULE
*****
 37 41 0 0 0
SMALL
GASTEIGER

@<TRIPOS>ATOM
      1 C         144.0641  139.8253  163.9919 C.3     1  UNL1        0.0570
      2 C         143.6073  139.0225  165.1737 C.3     1  UNL1        0.0331
      3 C         143.0531  139.7163  166.3828 C.3     1  UNL1        0.0735
      4 N         142.9559  141.2129  166.4099 N.3     1  UNL1       -0.2711
      5 C         143.4128  142.0157  165.2280 C.3     1  UNL1        0.0735
      6 C         143.9669  141.3219  164.0191 C.3     1  UNL1        0.0331
      7 N         144.6182  139.1315  162.7830 N.3     1  UNL1       -0.2934
      8 H         144.8282  139.8571  162.0975 H       1  UNL1        0.1236
      9 C         143.8019  138.0907  162.0756 C.3     1  UNL1        0.1152
     10 O         138.0106  141.7494  158.3574 O.2     1  UNL1       -0.2707
     11 C         138.4739  140.7500  159.3756 C.2     1  UNL1        0.2718
     12 C         137.4700  139.9707  160.1724 C.3     1  UNL1        0.2898
     13 O         137.9333  138.9713  161.1905 O.3     1  UNL1       -0.4628
     14 C         139.4004  138.7512  161.4118 C.ar    1  UNL1        0.1708
     15 C         139.8637  137.7518  162.4299 C.ar    1  UNL1        0.0411
     16 C         141.3308  137.5316  162.6512 C.ar    1  UNL1        0.0193
     17 C         142.3348  138.3109  161.8543 C.ar    1  UNL1        0.0765
     18 N         141.8715  139.3103  160.8362 N.ar    1  UNL1       -0.2304
     19 C         140.4043  139.5304  160.6149 C.ar    1  UNL1        0.1682
     20 N         139.9410  140.5298  159.5968 N.am    1  UNL1       -0.2639
     21 H         140.5999  141.0412  159.0738 H       1  UNL1        0.1565
     22 C         142.4018  141.9067  167.6188 C.3     1  UNL1        0.0942
     23 C         140.9402  142.2360  167.6904 C.3     1  UNL1        0.1157
     24 N         139.9373  141.3479  167.0154 N.am    1  UNL1       -0.2515
     25 C         139.5161  140.0631  167.6648 C.2     1  UNL1        0.2740
     26 O         140.0978  139.6663  168.9894 O.2     1  UNL1       -0.2705
     27 C         138.5133  139.1750  166.9898 C.3     1  UNL1        0.2900
     28 O         137.9316  139.5718  165.6653 O.3     1  UNL1       -0.4643
     29 C         138.3528  140.8566  165.0158 C.ar    1  UNL1        0.1528
     30 C         137.7712  141.2534  163.6914 C.ar    1  UNL1        0.0382
     31 C         138.1924  142.5382  163.0419 C.ar    1  UNL1        0.0043
     32 C         139.1952  143.4263  163.7169 C.ar    1  UNL1        0.0154
     33 C         139.7769  143.0295  165.0414 C.ar    1  UNL1        0.0191
     34 C         139.3557  141.7447  165.6909 C.ar    1  UNL1        0.0882
     35 C         139.6164  144.7111  163.0674 C.2     1  UNL1        0.0729
     36 O         138.7014  145.3954  162.0957 O.co2   1  UNL1       -0.5446
     37 O         140.9527  145.3116  163.3898 O.co2   1  UNL1       -0.5446
@<TRIPOS>UNITY_ATOM_ATTR
36 1
charge -1
@<TRIPOS>BOND
     1    10    11    2
     2    11    12    1
     3    12    13    1
     4    13    14    1
     5    14    15   ar
     6    15    16   ar
     7    16    17   ar
     8    17     9    1
     9     9     7    1
    10     7     1    1
    11     1     2    1
    12     2     3    1
    13     3     4    1
    14     4    22    1
    15    22    23    1
    16    23    24    1
    17    24    25   am
    18    25    26    2
    19    25    27    1
    20    27    28    1
    21    28    29    1
    22    29    30   ar
    23    30    31   ar
    24    31    32   ar
    25    32    35    1
    26    35    36   ar
    27    35    37   ar
    28    32    33   ar
    29    33    34   ar
    30     4     5    1
    31     5     6    1
    32    17    18   ar
    33    18    19   ar
    34    19    20    1
    35    20    11   am
    36    19    14   ar
    37     6     1    1
    38    34    24    1
    39    34    29   ar
    40     7     8    1
    41    20    21    1
@<TRIPOS>MOLECULE
*****
 37 41 0 0 0
SMALL
GASTEIGER

@<TRIPOS>ATOM
      1 C         142.7229  144.1138  163.1454 C.3     1  UNL1        0.0570
      2 C         142.8001  143.6394  164.5663 C.3     1  UNL1        0.0331
      3 C         143.5001  142.3529  164.8905 C.3     1  UNL1        0.0735
      4 N         144.1229  141.5409  163.7938 N.3     1  UNL1       -0.2711
      5 C         144.0458  142.0155  162.3729 C.3     1  UNL1        0.0735
      6 C         143.3458  143.3019  162.0487 C.3     1  UNL1        0.0331
      7 N         142.0230  145.4003  162.8213 N.3     1  UNL1       -0.2934
      8 H         142.2908  146.0708  163.5417 H       1  UNL1        0.1236
      9 C         140.5262  145.4374  162.7301 C.3     1  UNL1        0.1152
     10 O         138.1402  139.7502  157.9642 O.2     1  UNL1       -0.2707
     11 C         138.1663  140.3783  159.3261 C.2     1  UNL1        0.2718
     12 C         137.4231  139.7388  160.4613 C.3     1  UNL1        0.2898
     13 O         137.4492  140.3669  161.8232 O.3     1  UNL1       -0.4628
     14 C         138.2184  141.6345  162.0500 C.ar    1  UNL1        0.1708
     15 C         138.2445  142.2626  163.4119 C.ar    1  UNL1        0.0411
     16 C         139.0137  143.5302  163.6386 C.ar    1  UNL1        0.0193
     17 C         139.7569  144.1698  162.5034 C.ar    1  UNL1        0.0765
     18 N         139.7309  143.5417  161.1415 N.ar    1  UNL1       -0.2304
     19 C         138.9616  142.2740  160.9148 C.ar    1  UNL1        0.1682
     20 N         138.9355  141.6459  159.5528 N.am    1  UNL1       -0.2639
     21 H         139.4233  142.0657  158.8078 H       1  UNL1        0.1565
     22 C         144.8229  140.2545  164.1179 C.3     1  UNL1        0.0942
     23 C         144.0282  139.0528  164.5353 C.3     1  UNL1        0.1157
     24 N         142.7228  138.7464  163.8628 N.am    1  UNL1       -0.2515
     25 C         142.7067  138.2474  162.4484 C.2     1  UNL1        0.2740
     26 O         143.9960  138.0549  161.7063 O.2     1  UNL1       -0.2705
     27 C         141.4014  137.9410  161.7759 C.3     1  UNL1        0.2900
     28 O         140.1120  138.1336  162.5180 O.3     1  UNL1       -0.4643
     29 C         140.1281  138.6326  163.9325 C.ar    1  UNL1        0.1528
     30 C         138.8388  138.8251  164.6745 C.ar    1  UNL1        0.0382
     31 C         138.8549  139.3241  166.0890 C.ar    1  UNL1        0.0043
     32 C         140.1602  139.6305  166.7615 C.ar    1  UNL1        0.0154
     33 C         141.4496  139.4379  166.0194 C.ar    1  UNL1        0.0191
     34 C         141.4335  138.9390  164.6049 C.ar    1  UNL1        0.0882
     35 C         140.1763  140.1294  168.1760 C.2     1  UNL1        0.0729
     36 O         141.3508  140.9138  168.6813 O.co2   1  UNL1       -0.5446
     37 O         139.0178  139.8440  169.0851 O.co2   1  UNL1       -0.5446
@<TRIPOS>UNITY_ATOM_ATTR
36 1
charge -1
@<TRIPOS>BOND
     1    10    11    2
     2    11    12    1
     3    12    13    1
     4    13    14    1
     5    14    15   ar
     6    15    16   ar
     7    16    17   ar
     8    17     9    1
     9     9     7    1
    10     7     1    1
    11     1     2    1
    12     2     3    1
    13     3     4    1
    14     4    22    1
    15    22    23    1
    16    23    24    1
    17    24    25   am
    18    25    26    2
    19    25    27    1
    20    27    28    1
    21    28    29    1
    22    29    30   ar
    23    30    31   ar
    24    31    32   ar
    25    32    35    1
    26    35    36   ar
    27    35    37   ar
    28    32    33   ar
    29    33    34   ar
    30     4     5    1
    31     5     6    1
    32    17    18   ar
    33    18    19   ar
    34    19    20    1
    35    20    11   am
    36    19    14   ar
    37     6     1    1
    38    34    24    1
    39    34    29   ar
    40     7     8    1
    41    20    21    1
