@<TRIPOS>MOLECULE
*****
 38 43 0 0 0
SMALL
GASTEIGER

@<TRIPOS>ATOM
      1 C         139.6699  137.7439  162.5589 C.3     1  UNL1        0.0700
      2 C         139.4123  137.4899  164.0147 C.3     1  UNL1        0.0193
      3 C         140.5356  137.5899  165.0037 C.3     1  UNL1        0.0286
      4 C         141.9166  137.9439  164.5370 C.3     1  UNL1        0.0932
      5 C         142.1742  138.1979  163.0813 C.3     1  UNL1        0.0286
      6 C         141.0508  138.0979  162.0923 C.3     1  UNL1        0.0193
      7 O         141.3329  137.9009  163.9578 O.3     1  UNL1       -0.3572
      8 C         140.3172  137.8105  163.0635 C.3     1  UNL1        0.1562
      9 N         138.5467  137.6440  161.5699 N.3     1  UNL1       -0.2926
     10 H         138.9708  137.6380  160.6423 H       1  UNL1        0.1236
     11 C         137.4715  138.6898  161.5478 C.3     1  UNL1        0.1152
     12 O         138.3833  145.2931  165.5869 O.2     1  UNL1       -0.2707
     13 C         138.4461  144.5457  164.2878 C.2     1  UNL1        0.2718
     14 C         138.8754  145.2520  163.0362 C.3     1  UNL1        0.2898
     15 O         138.9381  144.5046  161.7371 O.3     1  UNL1       -0.4628
     16 C         138.5715  143.0509  161.6898 C.ar    1  UNL1        0.1708
     17 C         138.6342  142.3035  160.3908 C.ar    1  UNL1        0.0411
     18 C         138.2676  140.8498  160.3434 C.ar    1  UNL1        0.0193
     19 C         137.8382  140.1435  161.5951 C.ar    1  UNL1        0.0765
     20 N         137.7754  140.8908  162.8941 N.ar    1  UNL1       -0.2304
     21 C         138.1421  142.3446  162.9415 C.ar    1  UNL1        0.1682
     22 N         138.0794  143.0920  164.2405 N.am    1  UNL1       -0.2639
     23 H         137.7976  142.6284  165.0620 H       1  UNL1        0.1565
     24 C         143.0398  138.0438  165.5261 C.3     1  UNL1        0.0320
     25 C         143.0356  139.1322  166.5583 C.3     1  UNL1        0.0327
     26 C         142.3647  140.4413  166.2651 C.ar    1  UNL1        0.0261
     27 C         141.0307  140.7538  166.8760 C.ar    1  UNL1        0.1566
     28 F         140.3678  139.7571  167.7799 F       1  UNL1       -0.2028
     29 C         140.3598  142.0629  166.5828 C.ar    1  UNL1        0.1281
     30 N         141.0227  143.0596  165.6788 N.ar    1  UNL1       -0.2400
     31 C         142.3565  142.7472  165.0680 C.ar    1  UNL1        0.0990
     32 C         143.0194  143.7439  164.1640 C.ar    1  UNL1        0.0254
     33 C         144.3534  143.4314  163.5532 C.ar    1  UNL1        0.0591
     34 C         145.0243  142.1223  163.8464 C.ar    1  UNL1        0.2217
     35 O         146.3582  141.8099  163.2355 O.3     1  UNL1       -0.4919
     36 N         144.3614  141.1256  164.7503 N.ar    1  UNL1       -0.2105
     37 C         143.0276  141.4380  165.3611 C.ar    1  UNL1        0.1002
     38 H         146.7723  142.4325  162.6709 H       1  UNL1        0.2937
@<TRIPOS>BOND
     1    12    13    2
     2    13    14    1
     3    14    15    1
     4    15    16    1
     5    16    17   ar
     6    17    18   ar
     7    18    19   ar
     8    19    11    1
     9    11     9    1
    10     9     1    1
    11     1     2    1
    12     2     3    1
    13     3     4    1
    14     4    24    1
    15    24    25    1
    16    25    26    1
    17    26    27   ar
    18    27    28    1
    19    27    29   ar
    20    29    30   ar
    21    30    31   ar
    22    31    32   ar
    23    32    33   ar
    24    33    34   ar
    25    34    35    1
    26    34    36   ar
    27    36    37   ar
    28     4     5    1
    29     5     6    1
    30     4     7    1
    31     7     8    1
    32    19    20   ar
    33    20    21   ar
    34    21    22    1
    35    22    13   am
    36    21    16   ar
    37     6     1    1
    38     8     1    1
    39    37    26   ar
    40    37    31   ar
    41     9    10    1
    42    35    38    1
    43    22    23    1
@<TRIPOS>MOLECULE
*****
 38 43 0 0 0
SMALL
GASTEIGER

@<TRIPOS>ATOM
      1 C         137.9028  140.2872  161.8013 C.3     1  UNL1        0.0700
      2 C         137.6605  140.4546  163.2721 C.3     1  UNL1        0.0193
      3 C         137.6214  141.8279  163.8742 C.3     1  UNL1        0.0286
      4 C         137.8247  143.0338  163.0055 C.3     1  UNL1        0.0932
      5 C         138.0671  142.8663  161.5347 C.3     1  UNL1        0.0286
      6 C         138.1061  141.4930  160.9327 C.3     1  UNL1        0.0193
      7 O         137.8548  142.3015  162.6302 O.3     1  UNL1       -0.3572
      8 C         137.8901  141.0598  162.0858 C.3     1  UNL1        0.1562
      9 N         137.9419  138.9139  161.1992 N.3     1  UNL1       -0.2926
     10 H         137.4924  138.2869  161.8666 H       1  UNL1        0.1236
     11 C         139.2575  138.2905  160.8378 C.3     1  UNL1        0.1152
     12 O         145.9891  141.6573  162.8628 O.2     1  UNL1       -0.2707
     13 C         144.9111  140.6477  163.1248 C.2     1  UNL1        0.2718
     14 C         144.9991  139.7507  164.3238 C.3     1  UNL1        0.2898
     15 O         143.9211  138.7411  164.5858 O.3     1  UNL1       -0.4628
     16 C         142.7552  138.6284  163.6488 C.ar    1  UNL1        0.1708
     17 C         141.6773  137.6188  163.9108 C.ar    1  UNL1        0.0411
     18 C         140.5114  137.5061  162.9739 C.ar    1  UNL1        0.0193
     19 C         140.4234  138.4032  161.7748 C.ar    1  UNL1        0.0765
     20 N         141.5014  139.4128  161.5128 N.ar    1  UNL1       -0.2304
     21 C         142.6673  139.5254  162.4498 C.ar    1  UNL1        0.1682
     22 N         143.7453  140.5351  162.1878 N.am    1  UNL1       -0.2639
     23 H         143.6875  141.1238  161.4009 H       1  UNL1        0.1565
     24 C         137.7857  144.4071  163.6076 C.3     1  UNL1        0.0320
     25 C         138.8713  144.8461  164.5450 C.3     1  UNL1        0.0327
     26 C         140.2847  144.3982  164.3181 C.ar    1  UNL1        0.0261
     27 C         141.0670  144.9420  163.1594 C.ar    1  UNL1        0.1566
     28 F         140.4357  145.9337  162.2277 F       1  UNL1       -0.2028
     29 C         142.4804  144.4941  162.9325 C.ar    1  UNL1        0.1281
     30 N         143.1117  143.5024  163.8642 N.ar    1  UNL1       -0.2400
     31 C         142.3295  142.9587  165.0228 C.ar    1  UNL1        0.0990
     32 C         142.9608  141.9670  165.9545 C.ar    1  UNL1        0.0254
     33 C         142.1785  141.4232  167.1132 C.ar    1  UNL1        0.0591
     34 C         140.7651  141.8711  167.3402 C.ar    1  UNL1        0.2217
     35 O         139.9829  141.3273  168.4988 O.3     1  UNL1       -0.4919
     36 N         140.1338  142.8628  166.4084 N.ar    1  UNL1       -0.2105
     37 C         140.9160  143.4066  165.2498 C.ar    1  UNL1        0.1002
     38 H         140.3772  140.7079  169.0808 H       1  UNL1        0.2937
@<TRIPOS>BOND
     1    12    13    2
     2    13    14    1
     3    14    15    1
     4    15    16    1
     5    16    17   ar
     6    17    18   ar
     7    18    19   ar
     8    19    11    1
     9    11     9    1
    10     9     1    1
    11     1     2    1
    12     2     3    1
    13     3     4    1
    14     4    24    1
    15    24    25    1
    16    25    26    1
    17    26    27   ar
    18    27    28    1
    19    27    29   ar
    20    29    30   ar
    21    30    31   ar
    22    31    32   ar
    23    32    33   ar
    24    33    34   ar
    25    34    35    1
    26    34    36   ar
    27    36    37   ar
    28     4     5    1
    29     5     6    1
    30     4     7    1
    31     7     8    1
    32    19    20   ar
    33    20    21   ar
    34    21    22    1
    35    22    13   am
    36    21    16   ar
    37     6     1    1
    38     8     1    1
    39    37    26   ar
    40    37    31   ar
    41     9    10    1
    42    35    38    1
    43    22    23    1
@<TRIPOS>MOLECULE
*****
 38 43 0 0 0
SMALL
GASTEIGER

@<TRIPOS>ATOM
      1 C         139.5551  137.9603  162.4848 C.3     1  UNL1        0.0700
      2 C         140.9567  138.3017  162.0739 C.3     1  UNL1        0.0193
      3 C         142.0439  138.3745  163.1048 C.3     1  UNL1        0.0286
      4 C         141.7294  138.1060  164.5467 C.3     1  UNL1        0.0932
      5 C         140.3277  137.7646  164.9576 C.3     1  UNL1        0.0286
      6 C         139.2406  137.6917  163.9267 C.3     1  UNL1        0.0193
      7 O         141.1004  138.0542  164.0179 O.3     1  UNL1       -0.3572
      8 C         140.1174  137.9883  163.0857 C.3     1  UNL1        0.1562
      9 N         138.4680  137.8874  161.4539 N.3     1  UNL1       -0.2926
     10 H         138.9263  137.7684  160.5505 H       1  UNL1        0.1236
     11 C         137.5007  139.0239  161.3023 C.3     1  UNL1        0.1152
     12 O         141.6503  145.4259  159.7069 O.2     1  UNL1       -0.2707
     13 C         140.6889  144.6877  160.5905 C.2     1  UNL1        0.2718
     14 C         140.1492  145.3454  161.8259 C.3     1  UNL1        0.2898
     15 O         139.1878  144.6072  162.7095 O.3     1  UNL1       -0.4628
     16 C         138.7660  143.2114  162.3577 C.ar    1  UNL1        0.1708
     17 C         137.8046  142.4733  163.2413 C.ar    1  UNL1        0.0411
     18 C         137.3828  141.0775  162.8895 C.ar    1  UNL1        0.0193
     19 C         137.9225  140.4197  161.6541 C.ar    1  UNL1        0.0765
     20 N         138.8839  141.1579  160.7705 N.ar    1  UNL1       -0.2304
     21 C         139.3057  142.5538  161.1223 C.ar    1  UNL1        0.1682
     22 N         140.2671  143.2919  160.2387 N.am    1  UNL1       -0.2639
     23 H         140.6213  142.8603  159.4279 H       1  UNL1        0.1565
     24 C         142.8165  138.1788  165.5776 C.3     1  UNL1        0.0320
     25 C         142.9146  139.3721  166.4812 C.3     1  UNL1        0.0327
     26 C         142.2585  140.6636  166.0918 C.ar    1  UNL1        0.0261
     27 C         140.9058  141.0123  166.6384 C.ar    1  UNL1        0.1566
     28 F         140.2092  140.0695  167.5743 F       1  UNL1       -0.2028
     29 C         140.2497  142.3038  166.2491 C.ar    1  UNL1        0.1281
     30 N         140.9463  143.2466  165.3132 N.ar    1  UNL1       -0.2400
     31 C         142.2989  142.8979  164.7666 C.ar    1  UNL1        0.0990
     32 C         142.9955  143.8408  163.8308 C.ar    1  UNL1        0.0254
     33 C         144.3482  143.4921  163.2842 C.ar    1  UNL1        0.0591
     34 C         145.0043  142.2006  163.6735 C.ar    1  UNL1        0.2217
     35 O         146.3569  141.8519  163.1270 O.3     1  UNL1       -0.4919
     36 N         144.3077  141.2578  164.6094 N.ar    1  UNL1       -0.2105
     37 C         142.9551  141.6064  165.1560 C.ar    1  UNL1        0.1002
     38 H         146.7920  142.4409  162.5424 H       1  UNL1        0.2937
@<TRIPOS>BOND
     1    12    13    2
     2    13    14    1
     3    14    15    1
     4    15    16    1
     5    16    17   ar
     6    17    18   ar
     7    18    19   ar
     8    19    11    1
     9    11     9    1
    10     9     1    1
    11     1     2    1
    12     2     3    1
    13     3     4    1
    14     4    24    1
    15    24    25    1
    16    25    26    1
    17    26    27   ar
    18    27    28    1
    19    27    29   ar
    20    29    30   ar
    21    30    31   ar
    22    31    32   ar
    23    32    33   ar
    24    33    34   ar
    25    34    35    1
    26    34    36   ar
    27    36    37   ar
    28     4     5    1
    29     5     6    1
    30     4     7    1
    31     7     8    1
    32    19    20   ar
    33    20    21   ar
    34    21    22    1
    35    22    13   am
    36    21    16   ar
    37     6     1    1
    38     8     1    1
    39    37    26   ar
    40    37    31   ar
    41     9    10    1
    42    35    38    1
    43    22    23    1
@<TRIPOS>MOLECULE
*****
 38 43 0 0 0
SMALL
GASTEIGER

@<TRIPOS>ATOM
      1 C         144.3849  139.7300  163.3640 C.3     1  UNL1        0.0700
      2 C         144.1352  139.4351  164.8134 C.3     1  UNL1        0.0193
      3 C         142.9548  138.6020  165.2167 C.3     1  UNL1        0.0286
      4 C         142.0241  138.0638  164.1706 C.3     1  UNL1        0.0932
      5 C         142.2739  138.3587  162.7213 C.3     1  UNL1        0.0286
      6 C         143.4543  139.1918  162.3179 C.3     1  UNL1        0.0193
      7 O         142.6576  138.5155  163.9012 O.3     1  UNL1       -0.3572
      8 C         143.7249  139.2688  163.5365 C.3     1  UNL1        0.1562
      9 N         145.5653  140.5630  162.9607 N.3     1  UNL1       -0.2926
     10 H         146.3926  140.1076  163.3462 H       1  UNL1        0.1236
     11 C         145.6378  142.0060  163.3639 C.3     1  UNL1        0.1152
     12 O         140.3561  145.5155  158.8321 O.2     1  UNL1       -0.2707
     13 C         140.9120  145.2271  160.1951 C.2     1  UNL1        0.2718
     14 C         140.2632  145.8202  161.4105 C.3     1  UNL1        0.2898
     15 O         140.8191  145.5318  162.7736 O.3     1  UNL1       -0.4628
     16 C         142.0237  144.6503  162.9212 C.ar    1  UNL1        0.1708
     17 C         142.5796  144.3620  164.2842 C.ar    1  UNL1        0.0411
     18 C         143.7842  143.4805  164.4318 C.ar    1  UNL1        0.0193
     19 C         144.4331  142.8874  163.2163 C.ar    1  UNL1        0.0765
     20 N         143.8773  143.1758  161.8533 N.ar    1  UNL1       -0.2304
     21 C         142.6725  144.0573  161.7057 C.ar    1  UNL1        0.1682
     22 N         142.1167  144.3457  160.3427 N.am    1  UNL1       -0.2639
     23 H         142.5425  143.9565  159.5450 H       1  UNL1        0.1565
     24 C         140.8438  137.2307  164.5740 C.3     1  UNL1        0.0320
     25 C         139.5664  137.8944  164.9956 C.3     1  UNL1        0.0327
     26 C         139.0587  139.0896  164.2448 C.ar    1  UNL1        0.0261
     27 C         138.3373  138.9062  162.9424 C.ar    1  UNL1        0.1566
     28 F         138.1235  137.5277  162.3911 F       1  UNL1       -0.2028
     29 C         137.8296  140.1014  162.1916 C.ar    1  UNL1        0.1281
     30 N         138.0434  141.4799  162.7429 N.ar    1  UNL1       -0.2400
     31 C         138.7648  141.6633  164.0452 C.ar    1  UNL1        0.0990
     32 C         138.9786  143.0418  164.5965 C.ar    1  UNL1        0.0254
     33 C         139.7001  143.2251  165.8988 C.ar    1  UNL1        0.0591
     34 C         140.2078  142.0299  166.6497 C.ar    1  UNL1        0.2217
     35 O         140.9292  142.2133  167.9519 O.3     1  UNL1       -0.4919
     36 N         139.9940  140.6514  166.0983 N.ar    1  UNL1       -0.2105
     37 C         139.2725  140.4681  164.7961 C.ar    1  UNL1        0.1002
     38 H         141.0627  143.0744  168.2963 H       1  UNL1        0.2937
@<TRIPOS>BOND
     1    12    13    2
     2    13    14    1
     3    14    15    1
     4    15    16    1
     5    16    17   ar
     6    17    18   ar
     7    18    19   ar
     8    19    11    1
     9    11     9    1
    10     9     1    1
    11     1     2    1
    12     2     3    1
    13     3     4    1
    14     4    24    1
    15    24    25    1
    16    25    26    1
    17    26    27   ar
    18    27    28    1
    19    27    29   ar
    20    29    30   ar
    21    30    31   ar
    22    31    32   ar
    23    32    33   ar
    24    33    34   ar
    25    34    35    1
    26    34    36   ar
    27    36    37   ar
    28     4     5    1
    29     5     6    1
    30     4     7    1
    31     7     8    1
    32    19    20   ar
    33    20    21   ar
    34    21    22    1
    35    22    13   am
    36    21    16   ar
    37     6     1    1
    38     8     1    1
    39    37    26   ar
    40    37    31   ar
    41     9    10    1
    42    35    38    1
    43    22    23    1
@<TRIPOS>MOLECULE
*****
 38 43 0 0 0
SMALL
GASTEIGER

@<TRIPOS>ATOM
      1 C         142.3560  137.8716  162.7232 C.3     1  UNL1        0.0700
      2 C         142.5635  138.0401  164.1992 C.3     1  UNL1        0.0193
      3 C         141.3841  138.0514  165.1259 C.3     1  UNL1        0.0286
      4 C         139.9971  137.8943  164.5767 C.3     1  UNL1        0.0932
      5 C         139.7896  137.7258  163.1007 C.3     1  UNL1        0.0286
      6 C         140.9691  137.7145  162.1739 C.3     1  UNL1        0.0193
      7 O         140.6123  137.8817  164.0296 O.3     1  UNL1       -0.3572
      8 C         141.6788  137.8715  163.1916 C.3     1  UNL1        0.1562
      9 N         143.5353  137.8603  161.7964 N.3     1  UNL1       -0.2926
     10 H         144.3279  137.5075  162.3328 H       1  UNL1        0.1236
     11 C         143.9872  139.1322  161.1419 C.3     1  UNL1        0.1152
     12 O         140.4270  145.9646  162.3223 O.2     1  UNL1       -0.2707
     13 C         141.5120  144.9883  162.6682 C.2     1  UNL1        0.2718
     14 C         142.4952  145.3131  163.7534 C.3     1  UNL1        0.2898
     15 O         143.5802  144.3368  164.0993 O.3     1  UNL1       -0.4628
     16 C         143.6819  143.0357  163.3600 C.ar    1  UNL1        0.1708
     17 C         144.7669  142.0594  163.7059 C.ar    1  UNL1        0.0411
     18 C         144.8687  140.7582  162.9665 C.ar    1  UNL1        0.0193
     19 C         143.8854  140.4333  161.8813 C.ar    1  UNL1        0.0765
     20 N         142.8004  141.4097  161.5354 N.ar    1  UNL1       -0.2304
     21 C         142.6987  142.7109  162.2748 C.ar    1  UNL1        0.1682
     22 N         141.6138  143.6872  161.9289 N.am    1  UNL1       -0.2639
     23 H         140.9684  143.4740  161.2166 H       1  UNL1        0.1565
     24 C         138.8177  137.9056  165.5034 C.3     1  UNL1        0.0320
     25 C         138.2343  139.2102  165.9589 C.3     1  UNL1        0.0327
     26 C         139.1198  140.4087  166.1303 C.ar    1  UNL1        0.0261
     27 C         139.4434  141.2770  164.9507 C.ar    1  UNL1        0.1566
     28 F         138.8814  140.9468  163.5997 F       1  UNL1       -0.2028
     29 C         140.3289  142.4755  165.1221 C.ar    1  UNL1        0.1281
     30 N         140.8908  142.8058  166.4730 N.ar    1  UNL1       -0.2400
     31 C         140.5673  141.9376  167.6526 C.ar    1  UNL1        0.0990
     32 C         141.1293  142.2678  169.0036 C.ar    1  UNL1        0.0254
     33 C         140.8057  141.3995  170.1832 C.ar    1  UNL1        0.0591
     34 C         139.9201  140.2010  170.0118 C.ar    1  UNL1        0.2217
     35 O         139.5966  139.3328  171.1914 O.3     1  UNL1       -0.4919
     36 N         139.3582  139.8707  168.6608 N.ar    1  UNL1       -0.2105
     37 C         139.6817  140.7390  167.4812 C.ar    1  UNL1        0.1002
     38 H         139.9476  139.5391  172.0353 H       1  UNL1        0.2937
@<TRIPOS>BOND
     1    12    13    2
     2    13    14    1
     3    14    15    1
     4    15    16    1
     5    16    17   ar
     6    17    18   ar
     7    18    19   ar
     8    19    11    1
     9    11     9    1
    10     9     1    1
    11     1     2    1
    12     2     3    1
    13     3     4    1
    14     4    24    1
    15    24    25    1
    16    25    26    1
    17    26    27   ar
    18    27    28    1
    19    27    29   ar
    20    29    30   ar
    21    30    31   ar
    22    31    32   ar
    23    32    33   ar
    24    33    34   ar
    25    34    35    1
    26    34    36   ar
    27    36    37   ar
    28     4     5    1
    29     5     6    1
    30     4     7    1
    31     7     8    1
    32    19    20   ar
    33    20    21   ar
    34    21    22    1
    35    22    13   am
    36    21    16   ar
    37     6     1    1
    38     8     1    1
    39    37    26   ar
    40    37    31   ar
    41     9    10    1
    42    35    38    1
    43    22    23    1
@<TRIPOS>MOLECULE
*****
 38 43 0 0 0
SMALL
GASTEIGER

@<TRIPOS>ATOM
      1 C         142.1041  137.7393  162.6178 C.3     1  UNL1        0.0700
      2 C         140.6890  137.6634  162.1262 C.3     1  UNL1        0.0193
      3 C         139.5512  137.7457  163.1001 C.3     1  UNL1        0.0286
      4 C         139.8285  137.9041  164.5657 C.3     1  UNL1        0.0932
      5 C         141.2436  137.9800  165.0574 C.3     1  UNL1        0.0286
      6 C         142.3814  137.8977  164.0834 C.3     1  UNL1        0.0193
      7 O         140.4847  137.8635  164.0701 O.3     1  UNL1       -0.3572
      8 C         141.5136  137.7890  163.1895 C.3     1  UNL1        0.1562
      9 N         143.2420  137.6570  161.6439 N.3     1  UNL1       -0.2926
     10 H         144.0631  137.3659  162.1744 H       1  UNL1        0.1236
     11 C         143.6431  138.8681  160.8550 C.3     1  UNL1        0.1152
     12 O         145.3151  144.3236  166.1645 O.2     1  UNL1       -0.2707
     13 C         144.5382  143.8763  164.9619 C.2     1  UNL1        0.2718
     14 C         143.5419  144.8000  164.3264 C.3     1  UNL1        0.2898
     15 O         142.7650  144.3527  163.1237 O.3     1  UNL1       -0.4628
     16 C         142.9845  142.9816  162.5565 C.ar    1  UNL1        0.1708
     17 C         142.2077  142.5342  161.3539 C.ar    1  UNL1        0.0411
     18 C         142.4272  141.1631  160.7867 C.ar    1  UNL1        0.0193
     19 C         143.4236  140.2392  161.4222 C.ar    1  UNL1        0.0765
     20 N         144.2004  140.6866  162.6248 N.ar    1  UNL1       -0.2304
     21 C         143.9809  142.0578  163.1920 C.ar    1  UNL1        0.1682
     22 N         144.7577  142.5051  164.3947 N.am    1  UNL1       -0.2639
     23 H         145.4117  141.8988  164.8117 H       1  UNL1        0.1565
     24 C         138.6906  137.9864  165.5396 C.3     1  UNL1        0.0320
     25 C         138.1985  139.3242  166.0067 C.3     1  UNL1        0.0327
     26 C         139.1614  140.4630  166.1680 C.ar    1  UNL1        0.0261
     27 C         139.5268  141.3095  164.9848 C.ar    1  UNL1        0.1566
     28 F         138.9294  141.0172  163.6403 F       1  UNL1       -0.2028
     29 C         140.4896  142.4484  165.1461 C.ar    1  UNL1        0.1281
     30 N         141.0870  142.7407  166.4905 N.ar    1  UNL1       -0.2400
     31 C         140.7216  141.8943  167.6737 C.ar    1  UNL1        0.0990
     32 C         141.3191  142.1867  169.0182 C.ar    1  UNL1        0.0254
     33 C         140.9536  141.3401  170.2014 C.ar    1  UNL1        0.0591
     34 C         139.9908  140.2013  170.0401 C.ar    1  UNL1        0.2217
     35 O         139.6254  139.3549  171.2233 O.3     1  UNL1       -0.4919
     36 N         139.3934  139.9090  168.6957 N.ar    1  UNL1       -0.2105
     37 C         139.7588  140.7554  167.5125 C.ar    1  UNL1        0.1002
     38 H         139.9986  139.5376  172.0632 H       1  UNL1        0.2937
@<TRIPOS>BOND
     1    12    13    2
     2    13    14    1
     3    14    15    1
     4    15    16    1
     5    16    17   ar
     6    17    18   ar
     7    18    19   ar
     8    19    11    1
     9    11     9    1
    10     9     1    1
    11     1     2    1
    12     2     3    1
    13     3     4    1
    14     4    24    1
    15    24    25    1
    16    25    26    1
    17    26    27   ar
    18    27    28    1
    19    27    29   ar
    20    29    30   ar
    21    30    31   ar
    22    31    32   ar
    23    32    33   ar
    24    33    34   ar
    25    34    35    1
    26    34    36   ar
    27    36    37   ar
    28     4     5    1
    29     5     6    1
    30     4     7    1
    31     7     8    1
    32    19    20   ar
    33    20    21   ar
    34    21    22    1
    35    22    13   am
    36    21    16   ar
    37     6     1    1
    38     8     1    1
    39    37    26   ar
    40    37    31   ar
    41     9    10    1
    42    35    38    1
    43    22    23    1
@<TRIPOS>MOLECULE
*****
 38 43 0 0 0
SMALL
GASTEIGER

@<TRIPOS>ATOM
      1 C         139.4269  137.7925  162.5199 C.3     1  UNL1        0.0700
      2 C         139.1315  137.7034  163.9879 C.3     1  UNL1        0.0193
      3 C         140.2537  137.7424  164.9824 C.3     1  UNL1        0.0286
      4 C         141.6713  137.8705  164.5091 C.3     1  UNL1        0.0932
      5 C         141.9667  137.9596  163.0411 C.3     1  UNL1        0.0286
      6 C         140.8444  137.9206  162.0466 C.3     1  UNL1        0.0193
      7 O         141.0897  137.8534  163.9265 O.3     1  UNL1       -0.3572
      8 C         140.0751  137.8181  163.0271 C.3     1  UNL1        0.1562
      9 N         138.3047  137.7535  161.5254 N.3     1  UNL1       -0.2926
     10 H         138.7287  137.6128  160.6084 H       1  UNL1        0.1236
     11 C         137.3748  138.9235  161.3975 C.3     1  UNL1        0.1152
     12 O         138.3742  145.2921  165.7785 O.2     1  UNL1       -0.2707
     13 C         138.5654  144.5652  164.4804 C.2     1  UNL1        0.2718
     14 C         139.2809  145.2343  163.3445 C.3     1  UNL1        0.2898
     15 O         139.4721  144.5074  162.0463 O.3     1  UNL1       -0.4628
     16 C         138.9478  143.1115  161.8841 C.ar    1  UNL1        0.1708
     17 C         139.1390  142.3846  160.5860 C.ar    1  UNL1        0.0411
     18 C         138.6147  140.9886  160.4238 C.ar    1  UNL1        0.0193
     19 C         137.8991  140.3195  161.5598 C.ar    1  UNL1        0.0765
     20 N         137.7079  141.0463  162.8579 N.ar    1  UNL1       -0.2304
     21 C         138.2323  142.4424  163.0200 C.ar    1  UNL1        0.1682
     22 N         138.0411  143.1693  164.3182 N.am    1  UNL1       -0.2639
     23 H         137.5714  142.7301  165.0637 H       1  UNL1        0.1565
     24 C         142.7935  137.9095  165.5036 C.3     1  UNL1        0.0320
     25 C         143.4444  139.2160  165.8491 C.3     1  UNL1        0.0327
     26 C         142.6247  140.4710  165.9041 C.ar    1  UNL1        0.0261
     27 C         142.6297  141.4216  164.7437 C.ar    1  UNL1        0.1566
     28 F         143.4545  141.1172  163.5283 F       1  UNL1       -0.2028
     29 C         141.8100  142.6765  164.7986 C.ar    1  UNL1        0.1281
     30 N         140.9852  142.9810  166.0140 N.ar    1  UNL1       -0.2400
     31 C         140.9801  142.0305  167.1743 C.ar    1  UNL1        0.0990
     32 C         140.1553  142.3349  168.3896 C.ar    1  UNL1        0.0254
     33 C         140.1503  141.3843  169.5500 C.ar    1  UNL1        0.0591
     34 C         140.9700  140.1294  169.4950 C.ar    1  UNL1        0.2217
     35 O         140.9649  139.1788  170.6554 O.3     1  UNL1       -0.4919
     36 N         141.7948  139.8249  168.2797 N.ar    1  UNL1       -0.2105
     37 C         141.7999  140.7754  167.1194 C.ar    1  UNL1        0.1002
     38 H         140.4497  139.3690  171.4146 H       1  UNL1        0.2937
@<TRIPOS>BOND
     1    12    13    2
     2    13    14    1
     3    14    15    1
     4    15    16    1
     5    16    17   ar
     6    17    18   ar
     7    18    19   ar
     8    19    11    1
     9    11     9    1
    10     9     1    1
    11     1     2    1
    12     2     3    1
    13     3     4    1
    14     4    24    1
    15    24    25    1
    16    25    26    1
    17    26    27   ar
    18    27    28    1
    19    27    29   ar
    20    29    30   ar
    21    30    31   ar
    22    31    32   ar
    23    32    33   ar
    24    33    34   ar
    25    34    35    1
    26    34    36   ar
    27    36    37   ar
    28     4     5    1
    29     5     6    1
    30     4     7    1
    31     7     8    1
    32    19    20   ar
    33    20    21   ar
    34    21    22    1
    35    22    13   am
    36    21    16   ar
    37     6     1    1
    38     8     1    1
    39    37    26   ar
    40    37    31   ar
    41     9    10    1
    42    35    38    1
    43    22    23    1
@<TRIPOS>MOLECULE
*****
 38 43 0 0 0
SMALL
GASTEIGER

@<TRIPOS>ATOM
      1 C         139.4167  137.8788  162.6320 C.3     1  UNL1        0.0700
      2 C         140.8318  138.0009  162.1495 C.3     1  UNL1        0.0193
      3 C         141.9514  138.1424  163.1376 C.3     1  UNL1        0.0286
      4 C         141.6561  138.1618  164.6082 C.3     1  UNL1        0.0932
      5 C         140.2410  138.0396  165.0906 C.3     1  UNL1        0.0286
      6 C         139.1213  137.8981  164.1024 C.3     1  UNL1        0.0193
      7 O         141.0094  138.0823  164.1047 O.3     1  UNL1       -0.3572
      8 C         139.9970  137.9543  163.2113 C.3     1  UNL1        0.1562
      9 N         138.2971  137.7373  161.6439 N.3     1  UNL1       -0.2926
     10 H         138.7154  137.4251  160.7676 H       1  UNL1        0.1236
     11 C         137.4334  138.9188  161.3147 C.3     1  UNL1        0.1152
     12 O         141.7471  145.2193  159.7508 O.2     1  UNL1       -0.2707
     13 C         140.7641  144.5032  160.6288 C.2     1  UNL1        0.2718
     14 C         140.2360  145.1713  161.8636 C.3     1  UNL1        0.2898
     15 O         139.2530  144.4552  162.7417 O.3     1  UNL1       -0.4628
     16 C         138.7981  143.0712  162.3850 C.ar    1  UNL1        0.1708
     17 C         137.8151  142.3551  163.2630 C.ar    1  UNL1        0.0411
     18 C         137.3602  140.9710  162.9063 C.ar    1  UNL1        0.0193
     19 C         137.8883  140.3029  161.6715 C.ar    1  UNL1        0.0765
     20 N         138.8713  141.0189  160.7934 N.ar    1  UNL1       -0.2304
     21 C         139.3262  142.4031  161.1502 C.ar    1  UNL1        0.1682
     22 N         140.3092  143.1191  160.2721 N.am    1  UNL1       -0.2639
     23 H         140.6558  142.6806  159.4617 H       1  UNL1        0.1565
     24 C         142.7757  138.3033  165.5962 C.3     1  UNL1        0.0320
     25 C         143.3043  139.6641  165.9410 C.3     1  UNL1        0.0327
     26 C         142.3729  140.7232  166.4517 C.ar    1  UNL1        0.0261
     27 C         141.5870  141.5599  165.4861 C.ar    1  UNL1        0.1566
     28 F         141.7325  141.3375  164.0098 F       1  UNL1       -0.2028
     29 C         140.6556  142.6190  165.9967 C.ar    1  UNL1        0.1281
     30 N         140.5101  142.8414  167.4730 N.ar    1  UNL1       -0.2400
     31 C         141.2959  142.0048  168.4386 C.ar    1  UNL1        0.0990
     32 C         141.1504  142.2272  169.9148 C.ar    1  UNL1        0.0254
     33 C         141.9363  141.3905  170.8804 C.ar    1  UNL1        0.0591
     34 C         142.8677  140.3314  170.3698 C.ar    1  UNL1        0.2217
     35 O         143.6535  139.4947  171.3354 O.3     1  UNL1       -0.4919
     36 N         143.0132  140.1089  168.8935 N.ar    1  UNL1       -0.2105
     37 C         142.2274  140.9456  167.9279 C.ar    1  UNL1        0.1002
     38 H         143.5626  139.6337  172.2575 H       1  UNL1        0.2937
@<TRIPOS>BOND
     1    12    13    2
     2    13    14    1
     3    14    15    1
     4    15    16    1
     5    16    17   ar
     6    17    18   ar
     7    18    19   ar
     8    19    11    1
     9    11     9    1
    10     9     1    1
    11     1     2    1
    12     2     3    1
    13     3     4    1
    14     4    24    1
    15    24    25    1
    16    25    26    1
    17    26    27   ar
    18    27    28    1
    19    27    29   ar
    20    29    30   ar
    21    30    31   ar
    22    31    32   ar
    23    32    33   ar
    24    33    34   ar
    25    34    35    1
    26    34    36   ar
    27    36    37   ar
    28     4     5    1
    29     5     6    1
    30     4     7    1
    31     7     8    1
    32    19    20   ar
    33    20    21   ar
    34    21    22    1
    35    22    13   am
    36    21    16   ar
    37     6     1    1
    38     8     1    1
    39    37    26   ar
    40    37    31   ar
    41     9    10    1
    42    35    38    1
    43    22    23    1
@<TRIPOS>MOLECULE
*****
 38 43 0 0 0
SMALL
GASTEIGER

@<TRIPOS>ATOM
      1 C         143.7210  139.3139  163.3295 C.3     1  UNL1        0.0700
      2 C         143.6812  138.9340  164.7801 C.3     1  UNL1        0.0193
      3 C         142.4333  138.3438  165.3668 C.3     1  UNL1        0.0286
      4 C         141.2251  138.1335  164.5030 C.3     1  UNL1        0.0932
      5 C         141.2649  138.5134  163.0524 C.3     1  UNL1        0.0286
      6 C         142.5129  139.1036  162.4657 C.3     1  UNL1        0.0193
      7 O         141.8861  138.4601  164.1366 O.3     1  UNL1       -0.3572
      8 C         143.0145  138.9938  163.6060 C.3     1  UNL1        0.1562
      9 N         144.9689  139.9042  162.7428 N.3     1  UNL1       -0.2926
     10 H         145.7477  139.3343  163.0732 H       1  UNL1        0.1236
     11 C         145.3275  141.3330  163.0254 C.3     1  UNL1        0.1152
     12 O         139.8937  145.6476  159.4747 O.2     1  UNL1       -0.2707
     13 C         140.6304  145.2542  160.7206 C.2     1  UNL1        0.2718
     14 C         140.2926  145.9054  162.0289 C.3     1  UNL1        0.2898
     15 O         141.0293  145.5119  163.2749 O.3     1  UNL1       -0.4628
     16 C         142.1039  144.4672  163.2126 C.ar    1  UNL1        0.1708
     17 C         142.8406  144.0737  164.4585 C.ar    1  UNL1        0.0411
     18 C         143.9151  143.0290  164.3962 C.ar    1  UNL1        0.0193
     19 C         144.2530  142.3777  163.0878 C.ar    1  UNL1        0.0765
     20 N         143.5163  142.7712  161.8418 N.ar    1  UNL1       -0.2304
     21 C         142.4417  143.8160  161.9042 C.ar    1  UNL1        0.1682
     22 N         141.7050  144.2095  160.6583 N.am    1  UNL1       -0.2639
     23 H         141.9267  143.7820  159.7996 H       1  UNL1        0.1565
     24 C         139.9772  137.5433  165.0897 C.3     1  UNL1        0.0320
     25 C         138.9535  138.4353  165.7273 C.3     1  UNL1        0.0327
     26 C         139.1781  139.9175  165.7786 C.ar    1  UNL1        0.0261
     27 C         139.8562  140.5326  166.9669 C.ar    1  UNL1        0.1566
     28 F         140.3097  139.6654  168.1037 F       1  UNL1       -0.2028
     29 C         140.0808  142.0147  167.0182 C.ar    1  UNL1        0.1281
     30 N         139.6272  142.8819  165.8814 N.ar    1  UNL1       -0.2400
     31 C         138.9492  142.2668  164.6932 C.ar    1  UNL1        0.0990
     32 C         138.4956  143.1340  163.5564 C.ar    1  UNL1        0.0254
     33 C         137.8175  142.5189  162.3681 C.ar    1  UNL1        0.0591
     34 C         137.5929  141.0367  162.3168 C.ar    1  UNL1        0.2217
     35 O         136.9148  140.4217  161.1286 O.3     1  UNL1       -0.4919
     36 N         138.0465  140.1696  163.4536 N.ar    1  UNL1       -0.2105
     37 C         138.7246  140.7846  164.6418 C.ar    1  UNL1        0.1002
     38 H         136.6315  140.9633  160.4184 H       1  UNL1        0.2937
@<TRIPOS>BOND
     1    12    13    2
     2    13    14    1
     3    14    15    1
     4    15    16    1
     5    16    17   ar
     6    17    18   ar
     7    18    19   ar
     8    19    11    1
     9    11     9    1
    10     9     1    1
    11     1     2    1
    12     2     3    1
    13     3     4    1
    14     4    24    1
    15    24    25    1
    16    25    26    1
    17    26    27   ar
    18    27    28    1
    19    27    29   ar
    20    29    30   ar
    21    30    31   ar
    22    31    32   ar
    23    32    33   ar
    24    33    34   ar
    25    34    35    1
    26    34    36   ar
    27    36    37   ar
    28     4     5    1
    29     5     6    1
    30     4     7    1
    31     7     8    1
    32    19    20   ar
    33    20    21   ar
    34    21    22    1
    35    22    13   am
    36    21    16   ar
    37     6     1    1
    38     8     1    1
    39    37    26   ar
    40    37    31   ar
    41     9    10    1
    42    35    38    1
    43    22    23    1
