@<TRIPOS>MOLECULE
*****
 32 35 0 0 0
SMALL
GASTEIGER

@<TRIPOS>ATOM
      1 N         139.2786  140.5557  166.2807 N.3     1  UNL1       -0.2690
      2 C         139.7516  141.9745  166.1648 C.3     1  UNL1        0.0724
      3 C         139.2368  142.8488  165.0600 C.3     1  UNL1        0.0188
      4 C         138.2490  142.3043  164.0711 C.3     1  UNL1        0.0188
      5 C         137.7760  140.8856  164.1871 C.3     1  UNL1        0.0188
      6 C         138.2908  140.0113  165.2919 C.3     1  UNL1        0.0724
      7 C         139.7934  139.6814  167.3855 C.3     1  UNL1        0.0992
      8 C         142.0052  140.3275  168.5855 C.ar    1  UNL1        0.0113
      9 C         142.7178  140.9387  169.7555 C.ar    1  UNL1        0.0009
     10 C         141.9311  141.5149  170.8953 C.ar    1  UNL1        0.0000
     11 C         140.4318  141.4799  170.8651 C.ar    1  UNL1       -0.0003
     12 C         139.7192  140.8688  169.6952 C.ar    1  UNL1       -0.0029
     13 C         140.5059  140.2925  168.5554 C.ar    1  UNL1       -0.0050
     14 O         142.9333  140.5220  166.1667 O.co2   1  UNL1       -0.5446
     15 C         142.7919  139.7513  167.4458 C.2     1  UNL1        0.0726
     16 O         143.4373  138.4044  167.5851 O.co2   1  UNL1       -0.5446
     17 C         137.7342  143.1786  162.9663 C.3     1  UNL1        0.0721
     18 N         138.6955  143.8422  162.0252 N.3     1  UNL1       -0.2724
     19 C         139.2748  143.0702  160.8771 C.3     1  UNL1        0.0758
     20 C         140.2360  143.7338  159.9361 C.3     1  UNL1        0.0609
     21 C         140.6181  145.1694  160.1432 C.3     1  UNL1        0.1687
     22 C         140.0389  145.9415  161.2914 C.3     1  UNL1        0.0609
     23 C         139.0776  145.2779  162.2324 C.3     1  UNL1        0.0758
     24 O         141.5794  145.8330  159.2022 O.3     1  UNL1       -0.4790
     25 C         141.3348  145.7851  157.7230 C.ar    1  UNL1        0.1393
     26 C         142.3371  145.1323  156.8179 C.ar    1  UNL1        0.0378
     27 C         142.0924  145.0844  155.3387 C.ar    1  UNL1        0.0154
     28 C         140.8456  145.6893  154.7647 C.ar    1  UNL1        0.0684
     29 CL        140.6010  145.6414  153.2856 Cl      1  UNL1       -0.0814
     30 C         139.8434  146.3421  155.6699 C.ar    1  UNL1        0.0712
     31 CL        138.5965  146.9471  155.0960 Cl      1  UNL1       -0.0813
     32 C         140.0880  146.3901  157.1490 C.ar    1  UNL1        0.0491
@<TRIPOS>UNITY_ATOM_ATTR
14 1
charge -1
@<TRIPOS>BOND
     1    14    15   ar
     2    15    16   ar
     3    15     8    1
     4     8     9   ar
     5     9    10   ar
     6    10    11   ar
     7    11    12   ar
     8    12    13   ar
     9    13     7    1
    10     7     1    1
    11     1     2    1
    12     2     3    1
    13     3     4    1
    14     4    17    1
    15    17    18    1
    16    18    19    1
    17    19    20    1
    18    20    21    1
    19    21    24    1
    20    24    25    1
    21    25    26   ar
    22    26    27   ar
    23    27    28   ar
    24    28    29    1
    25    28    30   ar
    26    30    31    1
    27    30    32   ar
    28    21    22    1
    29    22    23    1
    30     4     5    1
    31     5     6    1
    32    13     8   ar
    33     6     1    1
    34    23    18    1
    35    32    25   ar
@<TRIPOS>MOLECULE
*****
 32 35 0 0 0
SMALL
GASTEIGER

@<TRIPOS>ATOM
      1 N         142.7982  143.7921  161.2475 N.3     1  UNL1       -0.2690
      2 C         142.1104  143.6708  159.9200 C.3     1  UNL1        0.0724
      3 C         142.6897  142.7900  158.8529 C.3     1  UNL1        0.0188
      4 C         143.9568  142.0305  159.1134 C.3     1  UNL1        0.0188
      5 C         144.6445  142.1519  160.4409 C.3     1  UNL1        0.0188
      6 C         144.0652  143.0327  161.5079 C.3     1  UNL1        0.0724
      7 C         142.2189  144.6729  162.3146 C.3     1  UNL1        0.0992
      8 C         139.8981  144.0084  163.2750 C.ar    1  UNL1        0.0113
      9 C         139.0695  143.4104  164.3731 C.ar    1  UNL1        0.0009
     10 C         139.7331  142.8788  165.6089 C.ar    1  UNL1        0.0000
     11 C         141.2253  142.9453  165.7465 C.ar    1  UNL1       -0.0003
     12 C         142.0539  143.5433  164.6485 C.ar    1  UNL1       -0.0029
     13 C         141.3903  144.0749  163.4126 C.ar    1  UNL1       -0.0050
     14 O         138.7302  143.5919  160.9919 O.co2   1  UNL1       -0.5446
     15 C         139.2345  144.5399  162.0393 C.2     1  UNL1        0.0726
     16 O         139.0751  146.0195  161.8509 O.co2   1  UNL1       -0.5446
     17 C         144.5361  141.1498  158.0463 C.3     1  UNL1        0.0721
     18 N         143.8441  139.8731  157.6701 N.3     1  UNL1       -0.2724
     19 C         143.0700  139.1074  158.7018 C.3     1  UNL1        0.0758
     20 C         142.3781  137.8309  158.3255 C.3     1  UNL1        0.0609
     21 C         142.4602  137.3201  156.9176 C.3     1  UNL1        0.1687
     22 C         143.2342  138.0858  155.8859 C.3     1  UNL1        0.0609
     23 C         143.9262  139.3623  156.2621 C.3     1  UNL1        0.0758
     24 O         141.7681  136.0435  156.5413 O.3     1  UNL1       -0.4790
     25 C         142.5641  134.7859  156.3541 C.ar    1  UNL1        0.1393
     26 C         142.3703  133.9521  155.1224 C.ar    1  UNL1        0.0378
     27 C         143.1663  132.6945  154.9352 C.ar    1  UNL1        0.0154
     28 C         144.1559  132.2708  155.9797 C.ar    1  UNL1        0.0684
     29 CL        144.9519  131.0133  155.7925 Cl      1  UNL1       -0.0814
     30 C         144.3497  133.1047  157.2114 C.ar    1  UNL1        0.0712
     31 CL        145.3394  132.6811  158.2559 Cl      1  UNL1       -0.0813
     32 C         143.5538  134.3622  157.3986 C.ar    1  UNL1        0.0491
@<TRIPOS>UNITY_ATOM_ATTR
14 1
charge -1
@<TRIPOS>BOND
     1    14    15   ar
     2    15    16   ar
     3    15     8    1
     4     8     9   ar
     5     9    10   ar
     6    10    11   ar
     7    11    12   ar
     8    12    13   ar
     9    13     7    1
    10     7     1    1
    11     1     2    1
    12     2     3    1
    13     3     4    1
    14     4    17    1
    15    17    18    1
    16    18    19    1
    17    19    20    1
    18    20    21    1
    19    21    24    1
    20    24    25    1
    21    25    26   ar
    22    26    27   ar
    23    27    28   ar
    24    28    29    1
    25    28    30   ar
    26    30    31    1
    27    30    32   ar
    28    21    22    1
    29    22    23    1
    30     4     5    1
    31     5     6    1
    32    13     8   ar
    33     6     1    1
    34    23    18    1
    35    32    25   ar
@<TRIPOS>MOLECULE
*****
 32 35 0 0 0
SMALL
GASTEIGER

@<TRIPOS>ATOM
      1 N         139.7710  141.2986  166.3046 N.3     1  UNL1       -0.2690
      2 C         140.0677  141.6752  164.8832 C.3     1  UNL1        0.0724
      3 C         139.9193  140.6577  163.7912 C.3     1  UNL1        0.0188
      4 C         139.4743  139.2635  164.1205 C.3     1  UNL1        0.0188
      5 C         139.1776  138.8870  165.5418 C.3     1  UNL1        0.0188
      6 C         139.3260  139.9045  166.6339 C.3     1  UNL1        0.0724
      7 C         139.9193  142.3162  167.3967 C.3     1  UNL1        0.0992
      8 C         141.0291  142.2856  169.7456 C.ar    1  UNL1        0.0113
      9 C         142.2619  142.2944  170.6001 C.ar    1  UNL1        0.0009
     10 C         143.6177  142.3425  169.9602 C.ar    1  UNL1        0.0000
     11 C         143.7407  142.3819  168.4658 C.ar    1  UNL1       -0.0003
     12 C         142.5079  142.3731  167.6113 C.ar    1  UNL1       -0.0029
     13 C         141.1521  142.3249  168.2512 C.ar    1  UNL1       -0.0050
     14 O         139.1548  143.4291  171.1347 O.co2   1  UNL1       -0.5446
     15 C         139.6733  142.2374  170.3855 C.2     1  UNL1        0.0726
     16 O         138.8360  140.9977  170.2763 O.co2   1  UNL1       -0.5446
     17 C         139.3259  138.2460  163.0284 C.3     1  UNL1        0.0721
     18 N         140.3080  138.2136  161.8950 N.3     1  UNL1       -0.2724
     19 C         141.7425  137.8612  162.1556 C.3     1  UNL1        0.0758
     20 C         142.7246  137.8288  161.0222 C.3     1  UNL1        0.0609
     21 C         142.2721  138.1488  159.6283 C.3     1  UNL1        0.1687
     22 C         140.8375  138.5012  159.3678 C.3     1  UNL1        0.0609
     23 C         139.8555  138.5336  160.5012 C.3     1  UNL1        0.0758
     24 O         143.2542  138.1164  158.4950 O.3     1  UNL1       -0.4790
     25 C         142.8779  137.4700  157.1948 C.ar    1  UNL1        0.1393
     26 C         142.6233  138.3160  155.9826 C.ar    1  UNL1        0.0378
     27 C         142.2470  137.6695  154.6823 C.ar    1  UNL1        0.0154
     28 C         142.1253  136.1771  154.5943 C.ar    1  UNL1        0.0684
     29 CL        141.7491  135.5307  153.2941 Cl      1  UNL1       -0.0814
     30 C         142.3799  135.3310  155.8065 C.ar    1  UNL1        0.0712
     31 CL        142.2583  133.8386  155.7185 Cl      1  UNL1       -0.0813
     32 C         142.7562  135.9774  157.1067 C.ar    1  UNL1        0.0491
@<TRIPOS>UNITY_ATOM_ATTR
14 1
charge -1
@<TRIPOS>BOND
     1    14    15   ar
     2    15    16   ar
     3    15     8    1
     4     8     9   ar
     5     9    10   ar
     6    10    11   ar
     7    11    12   ar
     8    12    13   ar
     9    13     7    1
    10     7     1    1
    11     1     2    1
    12     2     3    1
    13     3     4    1
    14     4    17    1
    15    17    18    1
    16    18    19    1
    17    19    20    1
    18    20    21    1
    19    21    24    1
    20    24    25    1
    21    25    26   ar
    22    26    27   ar
    23    27    28   ar
    24    28    29    1
    25    28    30   ar
    26    30    31    1
    27    30    32   ar
    28    21    22    1
    29    22    23    1
    30     4     5    1
    31     5     6    1
    32    13     8   ar
    33     6     1    1
    34    23    18    1
    35    32    25   ar
@<TRIPOS>MOLECULE
*****
 32 35 0 0 0
SMALL
GASTEIGER

@<TRIPOS>ATOM
      1 N         140.4390  137.8122  162.7094 N.3     1  UNL1       -0.2690
      2 C         139.2432  138.0661  161.8401 C.3     1  UNL1        0.0724
      3 C         139.4283  138.4114  160.3921 C.3     1  UNL1        0.0188
      4 C         140.8092  138.5028  159.8135 C.3     1  UNL1        0.0188
      5 C         142.0050  138.2489  160.6829 C.3     1  UNL1        0.0188
      6 C         141.8198  137.9036  162.1308 C.3     1  UNL1        0.0724
      7 C         140.2539  137.4669  164.1573 C.3     1  UNL1        0.0992
      8 C         139.9588  139.2897  165.9850 C.ar    1  UNL1        0.0113
      9 C         140.5459  140.1712  167.0472 C.ar    1  UNL1        0.0009
     10 C         142.0150  140.1113  167.3441 C.ar    1  UNL1        0.0000
     11 C         142.8971  139.1699  166.5787 C.ar    1  UNL1       -0.0003
     12 C         142.3100  138.2885  165.5165 C.ar    1  UNL1       -0.0029
     13 C         140.8409  138.3484  165.2196 C.ar    1  UNL1       -0.0050
     14 O         137.9959  140.1161  164.4970 O.co2   1  UNL1       -0.5446
     15 C         138.4897  139.3496  165.6881 C.2     1  UNL1        0.0726
     16 O         137.5145  138.6430  166.5823 O.co2   1  UNL1       -0.5446
     17 C         140.9944  138.8481  158.3656 C.3     1  UNL1        0.0721
     18 N         141.4019  137.7863  157.3875 N.3     1  UNL1       -0.2724
     19 C         140.3892  137.2054  156.4459 C.3     1  UNL1        0.0758
     20 C         140.7967  136.1437  155.4679 C.3     1  UNL1        0.0609
     21 C         142.2171  135.6628  155.4315 C.3     1  UNL1        0.1687
     22 C         143.2299  136.2437  156.3732 C.3     1  UNL1        0.0609
     23 C         142.8223  137.3054  157.3512 C.3     1  UNL1        0.0758
     24 O         142.6247  134.6010  154.4535 O.3     1  UNL1       -0.4790
     25 C         142.5099  133.1529  154.8274 C.ar    1  UNL1        0.1393
     26 C         143.6873  132.4351  155.4176 C.ar    1  UNL1        0.0378
     27 C         143.5725  130.9870  155.7916 C.ar    1  UNL1        0.0154
     28 C         142.2803  130.2567  155.5753 C.ar    1  UNL1        0.0684
     29 CL        142.1655  128.8087  155.9492 Cl      1  UNL1       -0.0814
     30 C         141.1028  130.9746  154.9851 C.ar    1  UNL1        0.0712
     31 CL        139.8106  130.2443  154.7688 Cl      1  UNL1       -0.0813
     32 C         141.2176  132.4226  154.6111 C.ar    1  UNL1        0.0491
@<TRIPOS>UNITY_ATOM_ATTR
14 1
charge -1
@<TRIPOS>BOND
     1    14    15   ar
     2    15    16   ar
     3    15     8    1
     4     8     9   ar
     5     9    10   ar
     6    10    11   ar
     7    11    12   ar
     8    12    13   ar
     9    13     7    1
    10     7     1    1
    11     1     2    1
    12     2     3    1
    13     3     4    1
    14     4    17    1
    15    17    18    1
    16    18    19    1
    17    19    20    1
    18    20    21    1
    19    21    24    1
    20    24    25    1
    21    25    26   ar
    22    26    27   ar
    23    27    28   ar
    24    28    29    1
    25    28    30   ar
    26    30    31    1
    27    30    32   ar
    28    21    22    1
    29    22    23    1
    30     4     5    1
    31     5     6    1
    32    13     8   ar
    33     6     1    1
    34    23    18    1
    35    32    25   ar
@<TRIPOS>MOLECULE
*****
 32 35 0 0 0
SMALL
GASTEIGER

@<TRIPOS>ATOM
      1 N         139.4028  139.3634  163.6223 N.3     1  UNL1       -0.2690
      2 C         139.7993  140.5921  162.8586 C.3     1  UNL1        0.0724
      3 C         139.7156  140.6040  161.3610 C.3     1  UNL1        0.0188
      4 C         139.2355  139.3870  160.6270 C.3     1  UNL1        0.0188
      5 C         138.8391  138.1584  161.3907 C.3     1  UNL1        0.0188
      6 C         138.9228  138.1466  162.8883 C.3     1  UNL1        0.0724
      7 C         139.4865  139.3516  165.1199 C.3     1  UNL1        0.0992
      8 C         141.0006  139.5688  167.2199 C.ar    1  UNL1        0.0113
      9 C         142.3229  139.3567  167.8956 C.ar    1  UNL1        0.0009
     10 C         143.4534  138.7154  167.1468 C.ar    1  UNL1        0.0000
     11 C         143.2616  138.2861  165.7224 C.ar    1  UNL1       -0.0003
     12 C         141.9393  138.4982  165.0468 C.ar    1  UNL1       -0.0029
     13 C         140.8088  139.1395  165.7955 C.ar    1  UNL1       -0.0050
     14 O         139.9623  141.6507  168.3766 O.co2   1  UNL1       -0.5446
     15 C         139.8701  140.2101  167.9687 C.2     1  UNL1        0.0726
     16 O         138.6473  139.4109  168.3096 O.co2   1  UNL1       -0.5446
     17 C         139.1518  139.3988  159.1294 C.3     1  UNL1        0.0721
     18 N         140.0846  138.5479  158.3194 N.3     1  UNL1       -0.2724
     19 C         141.5116  138.3802  158.7499 C.3     1  UNL1        0.0758
     20 C         142.4442  137.5293  157.9399 C.3     1  UNL1        0.0609
     21 C         141.9499  136.8462  156.6994 C.3     1  UNL1        0.1687
     22 C         140.5228  137.0139  156.2689 C.3     1  UNL1        0.0609
     23 C         139.5902  137.8648  157.0789 C.3     1  UNL1        0.0758
     24 O         142.8826  135.9952  155.8894 O.3     1  UNL1       -0.4790
     25 C         142.9015  134.5081  156.0845 C.ar    1  UNL1        0.1393
     26 C         141.8389  133.6557  155.4565 C.ar    1  UNL1        0.0378
     27 C         141.8579  132.1685  155.6517 C.ar    1  UNL1        0.0154
     28 C         142.9394  131.5338  156.4747 C.ar    1  UNL1        0.0684
     29 CL        142.9583  130.0467  156.6698 Cl      1  UNL1       -0.0814
     30 C         144.0020  132.3862  157.1026 C.ar    1  UNL1        0.0712
     31 CL        145.0835  131.7515  157.9257 Cl      1  UNL1       -0.0813
     32 C         143.9831  133.8734  156.9076 C.ar    1  UNL1        0.0491
@<TRIPOS>UNITY_ATOM_ATTR
14 1
charge -1
@<TRIPOS>BOND
     1    14    15   ar
     2    15    16   ar
     3    15     8    1
     4     8     9   ar
     5     9    10   ar
     6    10    11   ar
     7    11    12   ar
     8    12    13   ar
     9    13     7    1
    10     7     1    1
    11     1     2    1
    12     2     3    1
    13     3     4    1
    14     4    17    1
    15    17    18    1
    16    18    19    1
    17    19    20    1
    18    20    21    1
    19    21    24    1
    20    24    25    1
    21    25    26   ar
    22    26    27   ar
    23    27    28   ar
    24    28    29    1
    25    28    30   ar
    26    30    31    1
    27    30    32   ar
    28    21    22    1
    29    22    23    1
    30     4     5    1
    31     5     6    1
    32    13     8   ar
    33     6     1    1
    34    23    18    1
    35    32    25   ar
@<TRIPOS>MOLECULE
*****
 32 35 0 0 0
SMALL
GASTEIGER

@<TRIPOS>ATOM
      1 N         142.2089  136.8035  156.8103 N.3     1  UNL1       -0.2690
      2 C         142.7383  137.6939  157.8951 C.3     1  UNL1        0.0724
      3 C         141.8154  138.6369  158.6085 C.3     1  UNL1        0.0188
      4 C         140.3630  138.6895  158.2370 C.3     1  UNL1        0.0188
      5 C         139.8337  137.7990  157.1522 C.3     1  UNL1        0.0188
      6 C         140.7566  136.8560  156.4388 C.3     1  UNL1        0.0724
      7 C         143.1319  135.8605  156.0969 C.3     1  UNL1        0.0992
      8 C         143.0792  133.3130  156.6042 C.ar    1  UNL1        0.0113
      9 C         142.6163  131.9288  156.2580 C.ar    1  UNL1        0.0009
     10 C         141.7433  131.7080  155.0584 C.ar    1  UNL1        0.0000
     11 C         141.3331  132.8713  154.2049 C.ar    1  UNL1       -0.0003
     12 C         141.7960  134.2555  154.5511 C.ar    1  UNL1       -0.0029
     13 C         142.6690  134.4763  155.7507 C.ar    1  UNL1       -0.0050
     14 O         143.5216  134.4863  158.8796 O.co2   1  UNL1       -0.5446
     15 C         143.9522  133.5337  157.8038 C.2     1  UNL1        0.0726
     16 O         145.2557  132.8020  157.9276 O.co2   1  UNL1       -0.5446
     17 C         139.4400  139.6325  158.9504 C.3     1  UNL1        0.0721
     18 N         139.1834  139.4636  160.4186 N.3     1  UNL1       -0.2724
     19 C         139.0261  140.6699  161.2961 C.3     1  UNL1        0.0758
     20 C         138.7695  140.5010  162.7643 C.3     1  UNL1        0.0609
     21 C         138.6703  139.1257  163.3550 C.3     1  UNL1        0.1687
     22 C         138.8276  137.9194  162.4775 C.3     1  UNL1        0.0609
     23 C         139.0842  138.0884  161.0093 C.3     1  UNL1        0.0758
     24 O         138.4136  138.9568  164.8232 O.3     1  UNL1       -0.4790
     25 C         139.5045  139.2410  165.8128 C.ar    1  UNL1        0.1393
     26 C         139.1700  139.8420  167.1458 C.ar    1  UNL1        0.0378
     27 C         140.2609  140.1261  168.1354 C.ar    1  UNL1        0.0154
     28 C         141.6862  139.8093  167.7920 C.ar    1  UNL1        0.0684
     29 CL        142.7771  140.0935  168.7815 Cl      1  UNL1       -0.0814
     30 C         142.0207  139.2084  166.4589 C.ar    1  UNL1        0.0712
     31 CL        143.4461  138.8915  166.1155 Cl      1  UNL1       -0.0813
     32 C         140.9299  138.9242  165.4694 C.ar    1  UNL1        0.0491
@<TRIPOS>UNITY_ATOM_ATTR
14 1
charge -1
@<TRIPOS>BOND
     1    14    15   ar
     2    15    16   ar
     3    15     8    1
     4     8     9   ar
     5     9    10   ar
     6    10    11   ar
     7    11    12   ar
     8    12    13   ar
     9    13     7    1
    10     7     1    1
    11     1     2    1
    12     2     3    1
    13     3     4    1
    14     4    17    1
    15    17    18    1
    16    18    19    1
    17    19    20    1
    18    20    21    1
    19    21    24    1
    20    24    25    1
    21    25    26   ar
    22    26    27   ar
    23    27    28   ar
    24    28    29    1
    25    28    30   ar
    26    30    31    1
    27    30    32   ar
    28    21    22    1
    29    22    23    1
    30     4     5    1
    31     5     6    1
    32    13     8   ar
    33     6     1    1
    34    23    18    1
    35    32    25   ar
@<TRIPOS>MOLECULE
*****
 32 35 0 0 0
SMALL
GASTEIGER

@<TRIPOS>ATOM
      1 N         139.5711  139.8867  167.3503 N.3     1  UNL1       -0.2690
      2 C         138.4839  138.9611  166.8903 C.3     1  UNL1        0.0724
      3 C         138.2123  138.7930  165.4247 C.3     1  UNL1        0.0188
      4 C         139.0278  139.5505  164.4191 C.3     1  UNL1        0.0188
      5 C         140.1149  140.4760  164.8791 C.3     1  UNL1        0.0188
      6 C         140.3865  140.6441  166.3447 C.3     1  UNL1        0.0724
      7 C         139.8427  140.0548  168.8159 C.3     1  UNL1        0.0992
      8 C         142.2995  140.6529  169.4126 C.ar    1  UNL1        0.0113
      9 C         143.3171  141.6524  169.8770 C.ar    1  UNL1        0.0009
     10 C         142.8954  143.0531  170.2091 C.ar    1  UNL1        0.0000
     11 C         141.4562  143.4543  170.0768 C.ar    1  UNL1       -0.0003
     12 C         140.4386  142.4549  169.6124 C.ar    1  UNL1       -0.0029
     13 C         140.8603  141.0542  169.2803 C.ar    1  UNL1       -0.0050
     14 O         142.7893  138.2135  170.1605 O.co2   1  UNL1       -0.5446
     15 C         142.7212  139.2523  169.0805 C.2     1  UNL1        0.0726
     16 O         143.0749  138.8904  167.6684 O.co2   1  UNL1       -0.5446
     17 C         138.7562  139.3824  162.9535 C.3     1  UNL1        0.0721
     18 N         139.8974  139.2302  161.9919 N.3     1  UNL1       -0.2724
     19 C         140.1387  140.2749  160.9430 C.3     1  UNL1        0.0758
     20 C         141.2798  140.1227  159.9814 C.3     1  UNL1        0.0609
     21 C         142.1796  138.9258  160.0687 C.3     1  UNL1        0.1687
     22 C         141.9383  137.8810  161.1176 C.3     1  UNL1        0.0609
     23 C         140.7972  138.0332  162.0792 C.3     1  UNL1        0.0758
     24 O         143.3207  138.7736  159.1071 O.3     1  UNL1       -0.4790
     25 C         143.0566  138.3638  157.6886 C.ar    1  UNL1        0.1393
     26 C         143.3937  139.2966  156.5633 C.ar    1  UNL1        0.0378
     27 C         143.1295  138.8867  155.1447 C.ar    1  UNL1        0.0154
     28 C         142.5282  137.5442  154.8515 C.ar    1  UNL1        0.0684
     29 CL        142.2641  137.1344  153.4329 Cl      1  UNL1       -0.0814
     30 C         142.1911  136.6114  155.9768 C.ar    1  UNL1        0.0712
     31 CL        141.5898  135.2689  155.6835 Cl      1  UNL1       -0.0813
     32 C         142.4552  137.0212  157.3953 C.ar    1  UNL1        0.0491
@<TRIPOS>UNITY_ATOM_ATTR
14 1
charge -1
@<TRIPOS>BOND
     1    14    15   ar
     2    15    16   ar
     3    15     8    1
     4     8     9   ar
     5     9    10   ar
     6    10    11   ar
     7    11    12   ar
     8    12    13   ar
     9    13     7    1
    10     7     1    1
    11     1     2    1
    12     2     3    1
    13     3     4    1
    14     4    17    1
    15    17    18    1
    16    18    19    1
    17    19    20    1
    18    20    21    1
    19    21    24    1
    20    24    25    1
    21    25    26   ar
    22    26    27   ar
    23    27    28   ar
    24    28    29    1
    25    28    30   ar
    26    30    31    1
    27    30    32   ar
    28    21    22    1
    29    22    23    1
    30     4     5    1
    31     5     6    1
    32    13     8   ar
    33     6     1    1
    34    23    18    1
    35    32    25   ar
@<TRIPOS>MOLECULE
*****
 32 35 0 0 0
SMALL
GASTEIGER

@<TRIPOS>ATOM
      1 N         137.6714  141.4077  161.7731 N.3     1  UNL1       -0.2690
      2 C         137.6625  140.0227  161.1969 C.3     1  UNL1        0.0724
      3 C         138.1523  139.7889  159.7986 C.3     1  UNL1        0.0188
      4 C         138.6511  140.9401  158.9763 C.3     1  UNL1        0.0188
      5 C         138.6600  142.3250  159.5525 C.3     1  UNL1        0.0188
      6 C         138.1702  142.5588  160.9508 C.3     1  UNL1        0.0724
      7 C         137.1816  141.6414  163.1714 C.3     1  UNL1        0.0992
      8 C         138.9857  141.4587  165.0321 C.ar    1  UNL1        0.0113
      9 C         139.8820  142.1133  166.0412 C.ar    1  UNL1        0.0009
     10 C         139.8706  143.6049  166.1987 C.ar    1  UNL1        0.0000
     11 C         138.9629  144.4421  165.3471 C.ar    1  UNL1       -0.0003
     12 C         138.0666  143.7876  164.3380 C.ar    1  UNL1       -0.0029
     13 C         138.0779  142.2959  164.1805 C.ar    1  UNL1       -0.0050
     14 O         139.9172  139.3250  163.8790 O.co2   1  UNL1       -0.5446
     15 C         138.9971  139.9671  164.8746 C.2     1  UNL1        0.0726
     16 O         138.0884  139.1174  165.7127 O.co2   1  UNL1       -0.5446
     17 C         139.1409  140.7064  157.5780 C.3     1  UNL1        0.0721
     18 N         140.2630  139.7429  157.3276 N.3     1  UNL1       -0.2724
     19 C         139.9677  138.2895  157.1031 C.3     1  UNL1        0.0758
     20 C         141.0898  137.3262  156.8528 C.3     1  UNL1        0.0609
     21 C         142.5073  137.8162  156.8268 C.3     1  UNL1        0.1687
     22 C         142.8026  139.2696  157.0513 C.3     1  UNL1        0.0609
     23 C         141.6805  140.2329  157.3017 C.3     1  UNL1        0.0758
     24 O         143.6294  136.8527  156.5765 O.3     1  UNL1       -0.4790
     25 C         143.3300  135.4125  156.2834 C.ar    1  UNL1        0.1393
     26 C         143.4109  134.3916  157.3794 C.ar    1  UNL1        0.0378
     27 C         143.1114  132.9512  157.0863 C.ar    1  UNL1        0.0154
     28 C         142.7312  132.5318  155.6973 C.ar    1  UNL1        0.0684
     29 CL        142.4318  131.0916  155.4042 Cl      1  UNL1       -0.0814
     30 C         142.6504  133.5527  154.6013 C.ar    1  UNL1        0.0712
     31 CL        142.2701  133.1334  153.2122 Cl      1  UNL1       -0.0813
     32 C         142.9498  134.9930  154.8943 C.ar    1  UNL1        0.0491
@<TRIPOS>UNITY_ATOM_ATTR
14 1
charge -1
@<TRIPOS>BOND
     1    14    15   ar
     2    15    16   ar
     3    15     8    1
     4     8     9   ar
     5     9    10   ar
     6    10    11   ar
     7    11    12   ar
     8    12    13   ar
     9    13     7    1
    10     7     1    1
    11     1     2    1
    12     2     3    1
    13     3     4    1
    14     4    17    1
    15    17    18    1
    16    18    19    1
    17    19    20    1
    18    20    21    1
    19    21    24    1
    20    24    25    1
    21    25    26   ar
    22    26    27   ar
    23    27    28   ar
    24    28    29    1
    25    28    30   ar
    26    30    31    1
    27    30    32   ar
    28    21    22    1
    29    22    23    1
    30     4     5    1
    31     5     6    1
    32    13     8   ar
    33     6     1    1
    34    23    18    1
    35    32    25   ar
@<TRIPOS>MOLECULE
*****
 32 35 0 0 0
SMALL
GASTEIGER

@<TRIPOS>ATOM
      1 N         142.3370  135.7729  155.2952 N.3     1  UNL1       -0.2690
      2 C         143.3405  136.4619  156.1719 C.3     1  UNL1        0.0724
      3 C         142.8859  137.4792  157.1760 C.3     1  UNL1        0.0188
      4 C         141.4278  137.8077  157.3034 C.3     1  UNL1        0.0188
      5 C         140.4244  137.1188  156.4268 C.3     1  UNL1        0.0188
      6 C         140.8790  136.1014  155.4226 C.3     1  UNL1        0.0724
      7 C         142.7917  134.7556  154.2910 C.3     1  UNL1        0.0992
      8 C         142.3967  132.3636  155.2250 C.ar    1  UNL1        0.0113
      9 C         141.7085  131.0333  155.1407 C.ar    1  UNL1        0.0009
     10 C         140.7273  130.7650  154.0384 C.ar    1  UNL1        0.0000
     11 C         140.4342  131.8268  153.0202 C.ar    1  UNL1       -0.0003
     12 C         141.1223  133.1570  153.1045 C.ar    1  UNL1       -0.0029
     13 C         142.1036  133.4254  154.2068 C.ar    1  UNL1       -0.0050
     14 O         144.8221  132.2669  156.1512 O.co2   1  UNL1       -0.5446
     15 C         143.3778  132.6319  156.3273 C.2     1  UNL1        0.0726
     16 O         142.9148  133.2652  157.6058 O.co2   1  UNL1       -0.5446
     17 C         140.9732  138.8251  158.3076 C.3     1  UNL1        0.0721
     18 N         140.7854  138.4306  159.7426 N.3     1  UNL1       -0.2724
     19 C         139.4055  138.3580  160.3261 C.3     1  UNL1        0.0758
     20 C         139.2178  137.9636  161.7610 C.3     1  UNL1        0.0609
     21 C         140.4100  137.6417  162.6125 C.3     1  UNL1        0.1687
     22 C         141.7900  137.7143  162.0290 C.3     1  UNL1        0.0609
     23 C         141.9777  138.1087  160.5941 C.3     1  UNL1        0.0758
     24 O         140.2223  137.2473  164.0475 O.3     1  UNL1       -0.4790
     25 C         140.2035  138.2979  165.1179 C.ar    1  UNL1        0.1393
     26 C         138.9184  138.6377  165.8129 C.ar    1  UNL1        0.0378
     27 C         138.8998  139.6885  166.8833 C.ar    1  UNL1        0.0154
     28 C         140.1661  140.3994  167.2586 C.ar    1  UNL1        0.0684
     29 CL        140.1474  141.4501  168.3289 Cl      1  UNL1       -0.0814
     30 C         141.4512  140.0596  166.5635 C.ar    1  UNL1        0.0712
     31 CL        142.7176  140.7705  166.9388 Cl      1  UNL1       -0.0813
     32 C         141.4700  139.0089  165.4932 C.ar    1  UNL1        0.0491
@<TRIPOS>UNITY_ATOM_ATTR
14 1
charge -1
@<TRIPOS>BOND
     1    14    15   ar
     2    15    16   ar
     3    15     8    1
     4     8     9   ar
     5     9    10   ar
     6    10    11   ar
     7    11    12   ar
     8    12    13   ar
     9    13     7    1
    10     7     1    1
    11     1     2    1
    12     2     3    1
    13     3     4    1
    14     4    17    1
    15    17    18    1
    16    18    19    1
    17    19    20    1
    18    20    21    1
    19    21    24    1
    20    24    25    1
    21    25    26   ar
    22    26    27   ar
    23    27    28   ar
    24    28    29    1
    25    28    30   ar
    26    30    31    1
    27    30    32   ar
    28    21    22    1
    29    22    23    1
    30     4     5    1
    31     5     6    1
    32    13     8   ar
    33     6     1    1
    34    23    18    1
    35    32    25   ar
