@<TRIPOS>MOLECULE
*****
 29 31 0 0 0
SMALL
GASTEIGER

@<TRIPOS>ATOM
      1 N         139.4047  138.8265  158.1417 N.3     1  UNL1       -0.2712
      2 C         138.8180  140.1934  157.9480 C.3     1  UNL1        0.0900
      3 C         138.7691  140.8705  159.2856 C.3     1  UNL1        0.0964
      4 C         139.3255  139.9222  160.3059 C.3     1  UNL1        0.0557
      5 C         139.7183  138.6589  159.5990 C.3     1  UNL1        0.0779
      6 C         139.4647  140.1901  161.7753 C.ar    1  UNL1       -0.0197
      7 C         140.8124  140.4979  162.3572 C.ar    1  UNL1       -0.0042
      8 C         140.9515  140.7658  163.8265 C.ar    1  UNL1       -0.0003
      9 C         139.7428  140.7260  164.7138 C.ar    1  UNL1       -0.0000
     10 C         138.3950  140.4182  164.1319 C.ar    1  UNL1       -0.0003
     11 C         138.2559  140.1502  162.6626 C.ar    1  UNL1       -0.0042
     12 C         139.8819  140.9939  166.1832 C.ar    1  UNL1        0.0000
     13 C         139.5016  139.9373  167.1775 C.ar    1  UNL1        0.0007
     14 C         139.6408  140.2052  168.6469 C.ar    1  UNL1        0.0103
     15 C         140.1602  141.5298  169.1218 C.ar    1  UNL1        0.0684
     16 C         140.5406  142.5865  168.1273 C.ar    1  UNL1        0.0103
     17 C         140.4014  142.3185  166.6581 C.ar    1  UNL1        0.0007
     18 C         140.2994  141.7978  170.5911 C.1     1  UNL1        0.1004
     19 N         140.4385  142.0658  172.0603 N.1     1  UNL1       -0.1908
     20 C         141.0269  137.3187  156.7833 C.3     1  UNL1        0.0188
     21 C         139.6370  137.8063  157.0669 C.3     1  UNL1        0.0722
     22 N         138.2542  142.2533  159.5554 N.3     1  UNL1       -0.1830
     23 H         137.3438  142.1463  160.0029 H       1  UNL1        0.1484
     24 S         139.0486  143.1960  160.4098 S.O2    1  UNL1        0.0390
     25 O         140.2029  143.0854  159.4584 O.2     1  UNL1       -0.1576
     26 O         137.8942  143.3066  161.3612 O.2     1  UNL1       -0.1576
     27 C         139.8431  144.1388  161.2642 C.3     1  UNL1        0.1457
     28 C         140.8300  145.0742  160.6310 C.3     1  UNL1        0.0270
     29 C         139.6506  144.1461  162.7518 C.3     1  UNL1        0.0270
@<TRIPOS>BOND
     1    20    21    1
     2    21     1    1
     3     1     2    1
     4     2     3    1
     5     3    22    1
     6    22    24    1
     7    24    25    2
     8    24    26    2
     9    24    27    1
    10    27    28    1
    11    27    29    1
    12     3     4    1
    13     4     6    1
    14     6     7   ar
    15     7     8   ar
    16     8     9   ar
    17     9    12    1
    18    12    13   ar
    19    13    14   ar
    20    14    15   ar
    21    15    18    1
    22    18    19    3
    23    15    16   ar
    24    16    17   ar
    25     9    10   ar
    26    10    11   ar
    27     4     5    1
    28     5     1    1
    29    11     6   ar
    30    17    12   ar
    31    22    23    1
@<TRIPOS>MOLECULE
*****
 29 31 0 0 0
SMALL
GASTEIGER

@<TRIPOS>ATOM
      1 N         138.2435  142.0493  158.0163 N.3     1  UNL1       -0.2712
      2 C         138.0790  140.5616  158.1158 C.3     1  UNL1        0.0900
      3 C         138.2941  140.1662  159.5466 C.3     1  UNL1        0.0964
      4 C         138.5915  141.4094  160.3315 C.3     1  UNL1        0.0557
      5 C         138.5602  142.5732  159.3857 C.3     1  UNL1        0.0779
      6 C         138.8711  141.4769  161.8037 C.ar    1  UNL1       -0.0197
      7 C         140.2809  141.6275  162.2932 C.ar    1  UNL1       -0.0042
      8 C         140.5605  141.6950  163.7653 C.ar    1  UNL1       -0.0003
      9 C         139.4302  141.6120  164.7480 C.ar    1  UNL1       -0.0000
     10 C         138.0203  141.4614  164.2585 C.ar    1  UNL1       -0.0003
     11 C         137.7408  141.3939  162.7863 C.ar    1  UNL1       -0.0042
     12 C         139.7098  141.6795  166.2202 C.ar    1  UNL1        0.0000
     13 C         139.4415  140.4873  167.0900 C.ar    1  UNL1        0.0007
     14 C         139.7211  140.5548  168.5622 C.ar    1  UNL1        0.0103
     15 C         140.2690  141.8146  169.1645 C.ar    1  UNL1        0.0684
     16 C         140.5373  143.0068  168.2946 C.ar    1  UNL1        0.0103
     17 C         140.2577  142.9393  166.8225 C.ar    1  UNL1        0.0007
     18 C         140.5486  141.8821  170.6367 C.1     1  UNL1        0.1004
     19 N         140.8282  141.9497  172.1088 N.1     1  UNL1       -0.1908
     20 C         136.9141  142.7032  155.8820 C.3     1  UNL1        0.0188
     21 C         138.1139  142.8691  156.7668 C.3     1  UNL1        0.0722
     22 N         138.2241  138.7722  160.0962 N.3     1  UNL1       -0.1830
     23 H         138.3762  138.1385  159.3116 H       1  UNL1        0.1484
     24 S         139.1642  138.3471  161.1848 S.O2    1  UNL1        0.0390
     25 O         140.3285  138.5665  160.2649 O.2     1  UNL1       -0.1576
     26 O         137.9999  138.1277  162.1048 O.2     1  UNL1       -0.1576
     27 C         140.1045  137.9220  162.2735 C.3     1  UNL1        0.1457
     28 C         141.5493  137.6685  161.9600 C.3     1  UNL1        0.0270
     29 C         139.5999  137.7503  163.6756 C.3     1  UNL1        0.0270
@<TRIPOS>BOND
     1    20    21    1
     2    21     1    1
     3     1     2    1
     4     2     3    1
     5     3    22    1
     6    22    24    1
     7    24    25    2
     8    24    26    2
     9    24    27    1
    10    27    28    1
    11    27    29    1
    12     3     4    1
    13     4     6    1
    14     6     7   ar
    15     7     8   ar
    16     8     9   ar
    17     9    12    1
    18    12    13   ar
    19    13    14   ar
    20    14    15   ar
    21    15    18    1
    22    18    19    3
    23    15    16   ar
    24    16    17   ar
    25     9    10   ar
    26    10    11   ar
    27     4     5    1
    28     5     1    1
    29    11     6   ar
    30    17    12   ar
    31    22    23    1
@<TRIPOS>MOLECULE
*****
 29 31 0 0 0
SMALL
GASTEIGER

@<TRIPOS>ATOM
      1 N         138.6257  140.1733  158.1141 N.3     1  UNL1       -0.2712
      2 C         139.4445  138.9266  158.2737 C.3     1  UNL1        0.0900
      3 C         139.8370  138.8117  159.7169 C.3     1  UNL1        0.0964
      4 C         139.2609  139.9873  160.4491 C.3     1  UNL1        0.0557
      5 C         138.5123  140.8288  159.4585 C.3     1  UNL1        0.0779
      6 C         139.4077  140.2714  161.9147 C.ar    1  UNL1       -0.0197
      7 C         138.5102  139.5896  162.9044 C.ar    1  UNL1       -0.0042
      8 C         138.6570  139.8737  164.3698 C.ar    1  UNL1       -0.0003
      9 C         139.7014  140.8396  164.8456 C.ar    1  UNL1       -0.0000
     10 C         140.5989  141.5214  163.8559 C.ar    1  UNL1       -0.0003
     11 C         140.4521  141.2373  162.3904 C.ar    1  UNL1       -0.0042
     12 C         139.8482  141.1238  166.3112 C.ar    1  UNL1        0.0000
     13 C         140.3464  142.4623  166.7694 C.ar    1  UNL1        0.0007
     14 C         140.4932  142.7464  168.2350 C.ar    1  UNL1        0.0103
     15 C         140.1418  141.6919  169.2422 C.ar    1  UNL1        0.0684
     16 C         139.6435  140.3533  168.7839 C.ar    1  UNL1        0.0103
     17 C         139.4968  140.0693  167.3184 C.ar    1  UNL1        0.0007
     18 C         140.2885  141.9760  170.7077 C.1     1  UNL1        0.1004
     19 N         140.4353  142.2601  172.1732 N.1     1  UNL1       -0.1908
     20 C         136.6201  141.1999  156.8202 C.3     1  UNL1        0.0188
     21 C         138.0257  140.6762  156.8346 C.3     1  UNL1        0.0722
     22 N         140.6611  137.7138  160.3216 N.3     1  UNL1       -0.1830
     23 H         141.1606  137.2639  159.5545 H       1  UNL1        0.1484
     24 S         141.6811  138.0342  161.3737 S.O2    1  UNL1        0.0390
     25 O         142.4615  138.8342  160.3733 O.2     1  UNL1       -0.1576
     26 O         140.9006  137.2342  162.3741 O.2     1  UNL1       -0.1576
     27 C         142.7012  138.3546  162.4257 C.3     1  UNL1        0.1457
     28 C         142.3429  138.2387  163.8777 C.3     1  UNL1        0.0270
     29 C         144.0794  138.7908  162.0258 C.3     1  UNL1        0.0270
@<TRIPOS>BOND
     1    20    21    1
     2    21     1    1
     3     1     2    1
     4     2     3    1
     5     3    22    1
     6    22    24    1
     7    24    25    2
     8    24    26    2
     9    24    27    1
    10    27    28    1
    11    27    29    1
    12     3     4    1
    13     4     6    1
    14     6     7   ar
    15     7     8   ar
    16     8     9   ar
    17     9    12    1
    18    12    13   ar
    19    13    14   ar
    20    14    15   ar
    21    15    18    1
    22    18    19    3
    23    15    16   ar
    24    16    17   ar
    25     9    10   ar
    26    10    11   ar
    27     4     5    1
    28     5     1    1
    29    11     6   ar
    30    17    12   ar
    31    22    23    1
@<TRIPOS>MOLECULE
*****
 29 31 0 0 0
SMALL
GASTEIGER

@<TRIPOS>ATOM
      1 N         144.8722  142.6539  158.4655 N.3     1  UNL1       -0.2712
      2 C         143.4422  142.9344  158.1095 C.3     1  UNL1        0.0900
      3 C         142.6444  142.9578  159.3795 C.3     1  UNL1        0.0964
      4 C         143.5812  142.6917  160.5204 C.3     1  UNL1        0.0557
      5 C         144.9580  142.5039  159.9556 C.3     1  UNL1        0.0779
      6 C         143.2068  142.6252  161.9715 C.ar    1  UNL1       -0.0197
      7 C         143.5365  143.7688  162.8843 C.ar    1  UNL1       -0.0042
      8 C         143.1622  143.7022  164.3353 C.ar    1  UNL1       -0.0003
      9 C         142.4580  142.4920  164.8734 C.ar    1  UNL1       -0.0000
     10 C         142.1283  141.3484  163.9606 C.ar    1  UNL1       -0.0003
     11 C         142.5027  141.4149  162.5096 C.ar    1  UNL1       -0.0042
     12 C         142.0836  142.4254  166.3245 C.ar    1  UNL1        0.0000
     13 C         143.1436  142.2078  167.3633 C.ar    1  UNL1        0.0007
     14 C         142.7692  142.1413  168.8143 C.ar    1  UNL1        0.0103
     15 C         141.3349  142.2924  169.2265 C.ar    1  UNL1        0.0684
     16 C         140.2749  142.5100  168.1876 C.ar    1  UNL1        0.0103
     17 C         140.6493  142.5765  166.7366 C.ar    1  UNL1        0.0007
     18 C         140.9604  142.2258  170.6774 C.1     1  UNL1        0.1004
     19 N         140.5860  142.1593  172.1284 N.1     1  UNL1       -0.1908
     20 C         147.3485  143.1377  157.8461 C.3     1  UNL1        0.0188
     21 C         146.0155  142.5428  157.5009 C.3     1  UNL1        0.0722
     22 N         141.1688  143.2040  159.4892 N.3     1  UNL1       -0.1830
     23 H         140.7211  142.2893  159.5461 H       1  UNL1        0.1484
     24 S         140.6273  144.0224  160.6236 S.O2    1  UNL1        0.0390
     25 O         141.4838  145.1781  160.1985 O.2     1  UNL1       -0.1576
     26 O         139.7709  142.8667  161.0488 O.2     1  UNL1       -0.1576
     27 C         140.0859  144.8409  161.7580 C.3     1  UNL1        0.1457
     28 C         139.7368  144.1812  163.0592 C.3     1  UNL1        0.0270
     29 C         139.8935  146.3191  161.5913 C.3     1  UNL1        0.0270
@<TRIPOS>BOND
     1    20    21    1
     2    21     1    1
     3     1     2    1
     4     2     3    1
     5     3    22    1
     6    22    24    1
     7    24    25    2
     8    24    26    2
     9    24    27    1
    10    27    28    1
    11    27    29    1
    12     3     4    1
    13     4     6    1
    14     6     7   ar
    15     7     8   ar
    16     8     9   ar
    17     9    12    1
    18    12    13   ar
    19    13    14   ar
    20    14    15   ar
    21    15    18    1
    22    18    19    3
    23    15    16   ar
    24    16    17   ar
    25     9    10   ar
    26    10    11   ar
    27     4     5    1
    28     5     1    1
    29    11     6   ar
    30    17    12   ar
    31    22    23    1
@<TRIPOS>MOLECULE
*****
 29 31 0 0 0
SMALL
GASTEIGER

@<TRIPOS>ATOM
      1 N         141.9883  137.9043  157.9509 N.3     1  UNL1       -0.2712
      2 C         140.5311  138.2356  157.8205 C.3     1  UNL1        0.0900
      3 C         140.0148  138.5989  159.1811 C.3     1  UNL1        0.0964
      4 C         141.1529  138.4922  160.1525 C.3     1  UNL1        0.0557
      5 C         142.3725  138.0629  159.3921 C.3     1  UNL1        0.0779
      6 C         141.0834  138.7666  161.6256 C.ar    1  UNL1       -0.0197
      7 C         140.5465  137.7220  162.5586 C.ar    1  UNL1       -0.0042
      8 C         140.4770  137.9964  164.0316 C.ar    1  UNL1       -0.0003
      9 C         140.9446  139.3154  164.5716 C.ar    1  UNL1       -0.0000
     10 C         141.4815  140.3600  163.6386 C.ar    1  UNL1       -0.0003
     11 C         141.5510  140.0856  162.1656 C.ar    1  UNL1       -0.0042
     12 C         140.8751  139.5899  166.0447 C.ar    1  UNL1        0.0000
     13 C         139.5455  139.7988  166.7068 C.ar    1  UNL1        0.0007
     14 C         139.4760  140.0733  168.1799 C.ar    1  UNL1        0.0103
     15 C         140.7362  140.1387  168.9908 C.ar    1  UNL1        0.0684
     16 C         142.0659  139.9297  168.3287 C.ar    1  UNL1        0.0103
     17 C         142.1353  139.6553  166.8556 C.ar    1  UNL1        0.0007
     18 C         140.6668  140.4131  170.4639 C.1     1  UNL1        0.1004
     19 N         140.5974  140.6874  171.9369 N.1     1  UNL1       -0.1908
     20 C         143.1581  136.0319  156.5813 C.3     1  UNL1        0.0188
     21 C         142.9010  137.4876  156.8358 C.3     1  UNL1        0.0722
     22 N         138.6076  138.9987  159.5123 N.3     1  UNL1       -0.1830
     23 H         138.1367  138.1616  159.8557 H       1  UNL1        0.1484
     24 S         138.3526  140.0822  160.5178 S.O2    1  UNL1        0.0390
     25 O         139.1188  141.0516  159.6675 O.2     1  UNL1       -0.1576
     26 O         137.5864  139.1127  161.3682 O.2     1  UNL1       -0.1576
     27 C         138.0976  141.1657  161.5233 C.3     1  UNL1        0.1457
     28 C         138.2566  142.6049  161.1316 C.3     1  UNL1        0.0270
     29 C         137.6836  140.8100  162.9205 C.3     1  UNL1        0.0270
@<TRIPOS>BOND
     1    20    21    1
     2    21     1    1
     3     1     2    1
     4     2     3    1
     5     3    22    1
     6    22    24    1
     7    24    25    2
     8    24    26    2
     9    24    27    1
    10    27    28    1
    11    27    29    1
    12     3     4    1
    13     4     6    1
    14     6     7   ar
    15     7     8   ar
    16     8     9   ar
    17     9    12    1
    18    12    13   ar
    19    13    14   ar
    20    14    15   ar
    21    15    18    1
    22    18    19    3
    23    15    16   ar
    24    16    17   ar
    25     9    10   ar
    26    10    11   ar
    27     4     5    1
    28     5     1    1
    29    11     6   ar
    30    17    12   ar
    31    22    23    1
@<TRIPOS>MOLECULE
*****
 29 31 0 0 0
SMALL
GASTEIGER

@<TRIPOS>ATOM
      1 N         138.0575  141.4605  157.8220 N.3     1  UNL1       -0.2712
      2 C         138.6657  142.8317  157.8161 C.3     1  UNL1        0.0900
      3 C         139.0869  143.1579  159.2182 C.3     1  UNL1        0.0964
      4 C         138.7390  141.9884  160.0907 C.3     1  UNL1        0.0557
      5 C         138.1028  140.9393  159.2278 C.3     1  UNL1        0.0779
      6 C         138.9843  141.8859  161.5670 C.ar    1  UNL1       -0.0197
      7 C         138.0349  142.5323  162.5317 C.ar    1  UNL1       -0.0042
      8 C         138.2802  142.4299  164.0079 C.ar    1  UNL1       -0.0003
      9 C         139.4750  141.6810  164.5195 C.ar    1  UNL1       -0.0000
     10 C         140.4244  141.0345  163.5548 C.ar    1  UNL1       -0.0003
     11 C         140.1791  141.1370  162.0786 C.ar    1  UNL1       -0.0042
     12 C         139.7203  141.5785  165.9958 C.ar    1  UNL1        0.0000
     13 C         140.2928  142.7458  166.7437 C.ar    1  UNL1        0.0007
     14 C         140.5381  142.6434  168.2200 C.ar    1  UNL1        0.0103
     15 C         140.2108  141.3735  168.9483 C.ar    1  UNL1        0.0684
     16 C         139.6383  140.2062  168.2003 C.ar    1  UNL1        0.0103
     17 C         139.3930  140.3087  166.7241 C.ar    1  UNL1        0.0007
     18 C         140.4561  141.2711  170.4245 C.1     1  UNL1        0.1004
     19 N         140.7014  141.1686  171.9008 N.1     1  UNL1       -0.1908
     20 C         136.0625  140.9180  156.2485 C.3     1  UNL1        0.0188
     21 C         137.5016  140.7374  156.6311 C.3     1  UNL1        0.0722
     22 N         139.7411  144.4303  159.6688 N.3     1  UNL1       -0.1830
     23 H         138.9990  145.0331  160.0243 H       1  UNL1        0.1484
     24 S         140.8095  144.3926  160.7210 S.O2    1  UNL1        0.0390
     25 O         141.6704  143.5610  159.8168 O.2     1  UNL1       -0.1576
     26 O         139.9487  145.2241  161.6251 O.2     1  UNL1       -0.1576
     27 C         141.8780  144.3548  161.7730 C.3     1  UNL1        0.1457
     28 C         141.6560  145.0335  163.0922 C.3     1  UNL1        0.0270
     29 C         143.1685  143.6383  161.5060 C.3     1  UNL1        0.0270
@<TRIPOS>BOND
     1    20    21    1
     2    21     1    1
     3     1     2    1
     4     2     3    1
     5     3    22    1
     6    22    24    1
     7    24    25    2
     8    24    26    2
     9    24    27    1
    10    27    28    1
    11    27    29    1
    12     3     4    1
    13     4     6    1
    14     6     7   ar
    15     7     8   ar
    16     8     9   ar
    17     9    12    1
    18    12    13   ar
    19    13    14   ar
    20    14    15   ar
    21    15    18    1
    22    18    19    3
    23    15    16   ar
    24    16    17   ar
    25     9    10   ar
    26    10    11   ar
    27     4     5    1
    28     5     1    1
    29    11     6   ar
    30    17    12   ar
    31    22    23    1
@<TRIPOS>MOLECULE
*****
 29 31 0 0 0
SMALL
GASTEIGER

@<TRIPOS>ATOM
      1 N         141.6131  144.3697  157.7837 N.3     1  UNL1       -0.2712
      2 C         142.9238  143.6410  157.7467 C.3     1  UNL1        0.0900
      3 C         143.2526  143.2075  159.1446 C.3     1  UNL1        0.0964
      4 C         142.1451  143.6682  160.0454 C.3     1  UNL1        0.0557
      5 C         141.1319  144.3865  159.2043 C.3     1  UNL1        0.0779
      6 C         142.0650  143.4490  161.5272 C.ar    1  UNL1       -0.0197
      7 C         142.8564  144.3193  162.4579 C.ar    1  UNL1       -0.0042
      8 C         142.7762  144.1001  163.9396 C.ar    1  UNL1       -0.0003
      9 C         141.9048  143.0106  164.4906 C.ar    1  UNL1       -0.0000
     10 C         141.1134  142.1404  163.5598 C.ar    1  UNL1       -0.0003
     11 C         141.1935  142.3595  162.0781 C.ar    1  UNL1       -0.0042
     12 C         141.8246  142.7915  165.9724 C.ar    1  UNL1        0.0000
     13 C         140.5125  142.9433  166.6831 C.ar    1  UNL1        0.0007
     14 C         140.4324  142.7241  168.1649 C.ar    1  UNL1        0.0103
     15 C         141.6645  142.3532  168.9359 C.ar    1  UNL1        0.0684
     16 C         142.9767  142.2013  168.2250 C.ar    1  UNL1        0.0103
     17 C         143.0567  142.4205  166.7433 C.ar    1  UNL1        0.0007
     18 C         141.5844  142.1340  170.4176 C.1     1  UNL1        0.1004
     19 N         141.5044  141.9148  171.8993 N.1     1  UNL1       -0.1908
     20 C         141.6276  145.1325  155.3001 C.3     1  UNL1        0.0188
     21 C         140.9076  144.9753  156.6066 C.3     1  UNL1        0.0722
     22 N         144.4743  142.4468  159.5674 N.3     1  UNL1       -0.1830
     23 H         145.1089  143.1222  159.9932 H       1  UNL1        0.1484
     24 S         144.3499  141.3030  160.5297 S.O2    1  UNL1        0.0390
     25 O         145.2770  142.0015  161.4797 O.2     1  UNL1       -0.1576
     26 O         143.4228  140.6044  159.5797 O.2     1  UNL1       -0.1576
     27 C         144.2256  140.1592  161.4921 C.3     1  UNL1        0.1457
     28 C         144.3569  140.4019  162.9665 C.3     1  UNL1        0.0270
     29 C         143.9701  138.7726  160.9801 C.3     1  UNL1        0.0270
@<TRIPOS>BOND
     1    20    21    1
     2    21     1    1
     3     1     2    1
     4     2     3    1
     5     3    22    1
     6    22    24    1
     7    24    25    2
     8    24    26    2
     9    24    27    1
    10    27    28    1
    11    27    29    1
    12     3     4    1
    13     4     6    1
    14     6     7   ar
    15     7     8   ar
    16     8     9   ar
    17     9    12    1
    18    12    13   ar
    19    13    14   ar
    20    14    15   ar
    21    15    18    1
    22    18    19    3
    23    15    16   ar
    24    16    17   ar
    25     9    10   ar
    26    10    11   ar
    27     4     5    1
    28     5     1    1
    29    11     6   ar
    30    17    12   ar
    31    22    23    1
@<TRIPOS>MOLECULE
*****
 29 31 0 0 0
SMALL
GASTEIGER

@<TRIPOS>ATOM
      1 N         142.0322  144.8635  158.0841 N.3     1  UNL1       -0.2712
      2 C         142.9820  143.7141  157.9202 C.3     1  UNL1        0.0900
      3 C         142.9552  142.9068  159.1841 C.3     1  UNL1        0.0964
      4 C         141.9887  143.5572  160.1292 C.3     1  UNL1        0.0557
      5 C         141.4183  144.7664  159.4493 C.3     1  UNL1        0.0779
      6 C         141.6518  143.0816  161.5114 C.ar    1  UNL1       -0.0197
      7 C         140.6687  141.9648  161.7015 C.ar    1  UNL1       -0.0042
      8 C         140.3319  141.4894  163.0837 C.ar    1  UNL1       -0.0003
      9 C         140.9782  142.1308  164.2757 C.ar    1  UNL1       -0.0000
     10 C         141.9613  143.2476  164.0856 C.ar    1  UNL1       -0.0003
     11 C         142.2981  143.7230  162.7034 C.ar    1  UNL1       -0.0042
     12 C         140.6413  141.6552  165.6580 C.ar    1  UNL1        0.0000
     13 C         140.0733  140.2819  165.8610 C.ar    1  UNL1        0.0007
     14 C         139.7365  139.8064  167.2433 C.ar    1  UNL1        0.0103
     15 C         139.9676  140.7043  168.4224 C.ar    1  UNL1        0.0684
     16 C         140.5356  142.0777  168.2193 C.ar    1  UNL1        0.0103
     17 C         140.8724  142.5532  166.8371 C.ar    1  UNL1        0.0007
     18 C         139.6308  140.2289  169.8045 C.1     1  UNL1        0.1004
     19 N         139.2939  139.7534  171.1867 N.1     1  UNL1       -0.1908
     20 C         140.3368  146.3806  156.8296 C.3     1  UNL1        0.0188
     21 C         141.7464  145.9237  157.0622 C.3     1  UNL1        0.0722
     22 N         143.7544  141.6668  159.4554 N.3     1  UNL1       -0.1830
     23 H         144.6115  141.7432  158.9077 H       1  UNL1        0.1484
     24 S         144.1657  141.3315  160.8584 S.O2    1  UNL1        0.0390
     25 O         145.0160  142.5663  160.9042 O.2     1  UNL1       -0.1576
     26 O         143.3153  140.0967  160.8126 O.2     1  UNL1       -0.1576
     27 C         144.5770  140.9962  162.2614 C.3     1  UNL1        0.1457
     28 C         144.0289  139.7711  162.9312 C.3     1  UNL1        0.0270
     29 C         145.5363  141.8862  162.9946 C.3     1  UNL1        0.0270
@<TRIPOS>BOND
     1    20    21    1
     2    21     1    1
     3     1     2    1
     4     2     3    1
     5     3    22    1
     6    22    24    1
     7    24    25    2
     8    24    26    2
     9    24    27    1
    10    27    28    1
    11    27    29    1
    12     3     4    1
    13     4     6    1
    14     6     7   ar
    15     7     8   ar
    16     8     9   ar
    17     9    12    1
    18    12    13   ar
    19    13    14   ar
    20    14    15   ar
    21    15    18    1
    22    18    19    3
    23    15    16   ar
    24    16    17   ar
    25     9    10   ar
    26    10    11   ar
    27     4     5    1
    28     5     1    1
    29    11     6   ar
    30    17    12   ar
    31    22    23    1
@<TRIPOS>MOLECULE
*****
 29 31 0 0 0
SMALL
GASTEIGER

@<TRIPOS>ATOM
      1 N         143.0365  138.4717  158.3140 N.3     1  UNL1       -0.2712
      2 C         143.6567  139.8264  158.1399 C.3     1  UNL1        0.0900
      3 C         143.5791  140.5442  159.4547 C.3     1  UNL1        0.0964
      4 C         142.9110  139.6332  160.4414 C.3     1  UNL1        0.0557
      5 C         142.5756  138.3523  159.7365 C.3     1  UNL1        0.0779
      6 C         142.6279  139.9478  161.8806 C.ar    1  UNL1       -0.0197
      7 C         141.2367  140.3085  162.3098 C.ar    1  UNL1       -0.0042
      8 C         140.9537  140.6231  163.7489 C.ar    1  UNL1       -0.0003
      9 C         142.0620  140.5770  164.7586 C.ar    1  UNL1       -0.0000
     10 C         143.4532  140.2163  164.3294 C.ar    1  UNL1       -0.0003
     11 C         143.7362  139.9017  162.8903 C.ar    1  UNL1       -0.0042
     12 C         141.7789  140.8916  166.1978 C.ar    1  UNL1        0.0000
     13 C         140.6137  140.2497  166.8907 C.ar    1  UNL1        0.0007
     14 C         140.3307  140.5643  168.3298 C.ar    1  UNL1        0.0103
     15 C         141.2129  141.5209  169.0759 C.ar    1  UNL1        0.0684
     16 C         142.3781  142.1628  168.3829 C.ar    1  UNL1        0.0103
     17 C         142.6611  141.8482  166.9439 C.ar    1  UNL1        0.0007
     18 C         140.9299  141.8355  170.5150 C.1     1  UNL1        0.1004
     19 N         140.6469  142.1501  171.9540 N.1     1  UNL1       -0.1908
     20 C         141.5652  137.1597  156.6218 C.3     1  UNL1        0.0188
     21 C         142.9009  137.4210  157.2522 C.3     1  UNL1        0.0722
     22 N         144.0814  141.9297  159.7337 N.3     1  UNL1       -0.1830
     23 H         144.3109  142.3470  158.8317 H       1  UNL1        0.1484
     24 S         143.2085  142.9128  160.4560 S.O2    1  UNL1        0.0390
     25 O         142.1544  142.7516  159.4011 O.2     1  UNL1       -0.1576
     26 O         144.2627  143.0739  161.5108 O.2     1  UNL1       -0.1576
     27 C         142.3356  143.8958  161.1782 C.3     1  UNL1        0.1457
     28 C         141.4127  144.7895  160.4039 C.3     1  UNL1        0.0270
     29 C         142.3855  143.9850  162.6747 C.3     1  UNL1        0.0270
@<TRIPOS>BOND
     1    20    21    1
     2    21     1    1
     3     1     2    1
     4     2     3    1
     5     3    22    1
     6    22    24    1
     7    24    25    2
     8    24    26    2
     9    24    27    1
    10    27    28    1
    11    27    29    1
    12     3     4    1
    13     4     6    1
    14     6     7   ar
    15     7     8   ar
    16     8     9   ar
    17     9    12    1
    18    12    13   ar
    19    13    14   ar
    20    14    15   ar
    21    15    18    1
    22    18    19    3
    23    15    16   ar
    24    16    17   ar
    25     9    10   ar
    26    10    11   ar
    27     4     5    1
    28     5     1    1
    29    11     6   ar
    30    17    12   ar
    31    22    23    1
