@<TRIPOS>MOLECULE
*****
 34 38 0 0 0
SMALL
GASTEIGER

@<TRIPOS>ATOM
      1 C         139.9114  141.0235  167.1122 C.ar    1  UNL1        0.0004
      2 C         139.0202  139.8548  166.8125 C.ar    1  UNL1        0.0031
      3 C         138.3104  139.7718  165.4937 C.ar    1  UNL1        0.0370
      4 C         138.4918  140.8575  164.4746 C.ar    1  UNL1        0.1415
      5 C         139.3830  142.0261  164.7744 C.ar    1  UNL1        0.0699
      6 C         140.0928  142.1092  166.0932 C.ar    1  UNL1        0.0061
      7 C         139.7002  143.2074  163.9061 C.ar    1  UNL1        0.1704
      8 N         140.6152  144.3195  164.3256 N.ar    1  UNL1       -0.1273
      9 N         140.6850  145.3111  163.2022 N.ar    1  UNL1       -0.1127
     10 C         139.8131  144.8118  162.0885 C.ar    1  UNL1        0.2224
     11 N         139.2045  143.5116  162.5234 N.ar    1  UNL1       -0.2796
     12 C         138.2691  142.7098  161.6677 C.3     1  UNL1        0.1574
     13 C         137.5985  141.4058  161.9832 C.3     1  UNL1        0.2299
     14 O         137.6976  140.5814  163.2324 O.3     1  UNL1       -0.4733
     15 C         144.0490  142.4487  169.9138 C.3     1  UNL1        0.0521
     16 C         142.6900  141.8192  169.8319 C.ar    1  UNL1        0.0594
     17 C         141.9802  141.7361  168.5130 C.ar    1  UNL1        0.0147
     18 C         140.6212  141.1066  168.4311 C.ar    1  UNL1        0.0027
     19 C         139.9720  140.5601  169.6679 C.ar    1  UNL1        0.0207
     20 C         140.6817  140.6431  170.9868 C.ar    1  UNL1        0.0984
     21 N         142.0408  141.2727  171.0687 N.ar    1  UNL1       -0.2481
     22 N         139.5892  145.4931  160.7710 N.pl3   1  UNL1       -0.2825
     23 H         138.8522  146.1379  160.6692 H       1  UNL1        0.1551
     24 C         140.4882  145.1922  159.6085 C.ar    1  UNL1        0.0535
     25 C         141.6437  144.2510  159.7781 C.ar    1  UNL1        0.0149
     26 C         142.5427  143.9501  158.6156 C.ar    1  UNL1        0.0044
     27 C         142.2861  144.5904  157.2837 C.ar    1  UNL1        0.0373
     28 C         141.1305  145.5316  157.1141 C.ar    1  UNL1        0.1480
     29 C         140.2315  145.8325  158.2766 C.ar    1  UNL1        0.0518
     30 O         140.8738  146.1718  155.7822 O.3     1  UNL1       -0.4044
     31 C         139.4662  146.4319  155.3338 C.3     1  UNL1        0.5753
     32 F         138.0586  146.6920  154.8854 F       1  UNL1       -0.1328
     33 F         139.2418  144.9566  155.1825 F       1  UNL1       -0.1328
     34 F         139.6907  147.9073  155.4851 F       1  UNL1       -0.1328
@<TRIPOS>BOND
     1    15    16    1
     2    16    17   ar
     3    17    18   ar
     4    18     1    1
     5     1     2   ar
     6     2     3   ar
     7     3     4   ar
     8     4     5   ar
     9     5     6   ar
    10     5     7    1
    11     7     8   ar
    12     8     9   ar
    13     9    10   ar
    14    10    22    1
    15    22    24    1
    16    24    25   ar
    17    25    26   ar
    18    26    27   ar
    19    27    28   ar
    20    28    30    1
    21    30    31    1
    22    31    32    1
    23    31    33    1
    24    31    34    1
    25    28    29   ar
    26    10    11   ar
    27    11    12    1
    28    12    13    1
    29    13    14    1
    30    18    19   ar
    31    19    20   ar
    32    20    21   ar
    33    21    16   ar
    34     6     1   ar
    35    11     7   ar
    36    14     4    1
    37    29    24   ar
    38    22    23    1
@<TRIPOS>MOLECULE
*****
 34 38 0 0 0
SMALL
GASTEIGER

@<TRIPOS>ATOM
      1 C         139.8917  140.9570  167.1586 C.ar    1  UNL1        0.0004
      2 C         139.0031  139.7816  166.8780 C.ar    1  UNL1        0.0031
      3 C         138.2948  139.6747  165.5601 C.ar    1  UNL1        0.0370
      4 C         138.4751  140.7431  164.5229 C.ar    1  UNL1        0.1415
      5 C         139.3637  141.9185  164.8035 C.ar    1  UNL1        0.0699
      6 C         140.0720  142.0254  166.1214 C.ar    1  UNL1        0.0061
      7 C         139.6795  143.0854  163.9154 C.ar    1  UNL1        0.1704
      8 N         140.5918  144.2063  164.3168 N.ar    1  UNL1       -0.1273
      9 N         140.6608  145.1787  163.1767 N.ar    1  UNL1       -0.1127
     10 C         139.7911  144.6587  162.0708 C.ar    1  UNL1        0.2224
     11 N         139.1845  143.3650  162.5273 N.ar    1  UNL1       -0.2796
     12 C         138.2517  142.5469  161.6844 C.3     1  UNL1        0.1574
     13 C         137.5833  141.2470  162.0215 C.3     1  UNL1        0.2299
     14 O         137.6828  140.4443  163.2848 O.3     1  UNL1       -0.4733
     15 C         144.0229  142.4396  169.9399 C.3     1  UNL1        0.0521
     16 C         142.6656  141.8053  169.8672 C.ar    1  UNL1        0.0594
     17 C         141.9573  141.6983  168.5492 C.ar    1  UNL1        0.0147
     18 C         140.6000  141.0640  168.4766 C.ar    1  UNL1        0.0027
     19 C         139.9509  140.5366  169.7218 C.ar    1  UNL1        0.0207
     20 C         140.6592  140.6435  171.0397 C.ar    1  UNL1        0.0984
     21 N         142.0166  141.2779  171.1124 N.ar    1  UNL1       -0.2481
     22 N         139.5672  145.3171  160.7417 N.pl3   1  UNL1       -0.2825
     23 H         138.7927  145.9106  160.6106 H       1  UNL1        0.1551
     24 C         140.5231  145.0710  159.6123 C.ar    1  UNL1        0.0535
     25 C         140.3390  145.7835  158.3052 C.ar    1  UNL1        0.0149
     26 C         141.2951  145.5374  157.1758 C.ar    1  UNL1        0.0044
     27 C         142.4351  144.5790  157.3535 C.ar    1  UNL1        0.0373
     28 C         142.6192  143.8666  158.6606 C.ar    1  UNL1        0.1480
     29 C         141.6632  144.1126  159.7900 C.ar    1  UNL1        0.0518
     30 O         143.7593  142.9081  158.8384 O.3     1  UNL1       -0.4044
     31 C         143.8164  142.0273  160.0513 C.3     1  UNL1        0.5753
     32 F         143.8737  141.1465  161.2641 F       1  UNL1       -0.1328
     33 F         142.9136  141.0383  159.3756 F       1  UNL1       -0.1328
     34 F         144.7193  143.0164  160.7269 F       1  UNL1       -0.1328
@<TRIPOS>BOND
     1    15    16    1
     2    16    17   ar
     3    17    18   ar
     4    18     1    1
     5     1     2   ar
     6     2     3   ar
     7     3     4   ar
     8     4     5   ar
     9     5     6   ar
    10     5     7    1
    11     7     8   ar
    12     8     9   ar
    13     9    10   ar
    14    10    22    1
    15    22    24    1
    16    24    25   ar
    17    25    26   ar
    18    26    27   ar
    19    27    28   ar
    20    28    30    1
    21    30    31    1
    22    31    32    1
    23    31    33    1
    24    31    34    1
    25    28    29   ar
    26    10    11   ar
    27    11    12    1
    28    12    13    1
    29    13    14    1
    30    18    19   ar
    31    19    20   ar
    32    20    21   ar
    33    21    16   ar
    34     6     1   ar
    35    11     7   ar
    36    14     4    1
    37    29    24   ar
    38    22    23    1
@<TRIPOS>MOLECULE
*****
 34 38 0 0 0
SMALL
GASTEIGER

@<TRIPOS>ATOM
      1 C         139.9452  140.0389  167.6217 C.ar    1  UNL1        0.0004
      2 C         138.5838  139.4752  167.3412 C.ar    1  UNL1        0.0031
      3 C         138.3228  138.7501  166.0544 C.ar    1  UNL1        0.0370
      4 C         139.4233  138.5887  165.0479 C.ar    1  UNL1        0.1415
      5 C         140.7848  139.1524  165.3284 C.ar    1  UNL1        0.0699
      6 C         141.0457  139.8775  166.6153 C.ar    1  UNL1        0.0061
      7 C         142.0126  139.1037  164.4682 C.ar    1  UNL1        0.1704
      8 N         143.3251  139.7110  164.8661 N.ar    1  UNL1       -0.1273
      9 N         144.3059  139.4619  163.7589 N.ar    1  UNL1       -0.1127
     10 C         143.5995  138.7007  162.6766 C.ar    1  UNL1        0.2224
     11 N         142.1821  138.4793  163.1149 N.ar    1  UNL1       -0.2796
     12 C         141.1658  137.7493  162.2877 C.3     1  UNL1        0.1574
     13 C         139.7289  137.4635  162.6094 C.3     1  UNL1        0.2299
     14 O         138.9534  137.8371  163.8379 O.3     1  UNL1       -0.4733
     15 C         140.4038  144.4876  170.2673 C.3     1  UNL1        0.0521
     16 C         140.4355  142.9884  170.2314 C.ar    1  UNL1        0.0594
     17 C         140.1745  142.2633  168.9445 C.ar    1  UNL1        0.0147
     18 C         140.2062  140.7640  168.9086 C.ar    1  UNL1        0.0027
     19 C         140.4989  139.9899  170.1596 C.ar    1  UNL1        0.0207
     20 C         140.7599  140.7150  171.4465 C.ar    1  UNL1        0.0984
     21 N         140.7282  142.2143  171.4825 N.ar    1  UNL1       -0.2481
     22 N         144.2043  138.2415  161.3830 N.pl3   1  UNL1       -0.2825
     23 H         144.9851  137.6417  161.3901 H       1  UNL1        0.1551
     24 C         143.6197  138.6959  160.0785 C.ar    1  UNL1        0.0535
     25 C         143.7803  140.1217  159.6409 C.ar    1  UNL1        0.0149
     26 C         143.1956  140.5761  158.3364 C.ar    1  UNL1        0.0044
     27 C         142.4505  139.6048  157.4696 C.ar    1  UNL1        0.0373
     28 C         142.2900  138.1791  157.9072 C.ar    1  UNL1        0.1480
     29 C         142.8746  137.7247  159.2117 C.ar    1  UNL1        0.0518
     30 O         141.5449  137.2078  157.0404 O.3     1  UNL1       -0.4044
     31 C         142.2695  136.4529  155.9656 C.3     1  UNL1        0.5753
     32 F         142.9940  135.6979  154.8909 F       1  UNL1       -0.1328
     33 F         141.9866  137.5618  154.9960 F       1  UNL1       -0.1328
     34 F         142.5523  135.3440  156.9353 F       1  UNL1       -0.1328
@<TRIPOS>BOND
     1    15    16    1
     2    16    17   ar
     3    17    18   ar
     4    18     1    1
     5     1     2   ar
     6     2     3   ar
     7     3     4   ar
     8     4     5   ar
     9     5     6   ar
    10     5     7    1
    11     7     8   ar
    12     8     9   ar
    13     9    10   ar
    14    10    22    1
    15    22    24    1
    16    24    25   ar
    17    25    26   ar
    18    26    27   ar
    19    27    28   ar
    20    28    30    1
    21    30    31    1
    22    31    32    1
    23    31    33    1
    24    31    34    1
    25    28    29   ar
    26    10    11   ar
    27    11    12    1
    28    12    13    1
    29    13    14    1
    30    18    19   ar
    31    19    20   ar
    32    20    21   ar
    33    21    16   ar
    34     6     1   ar
    35    11     7   ar
    36    14     4    1
    37    29    24   ar
    38    22    23    1
@<TRIPOS>MOLECULE
*****
 34 38 0 0 0
SMALL
GASTEIGER

@<TRIPOS>ATOM
      1 C         140.4405  140.1669  167.7041 C.ar    1  UNL1        0.0004
      2 C         138.9837  139.8155  167.6387 C.ar    1  UNL1        0.0031
      3 C         138.4363  139.1079  166.4347 C.ar    1  UNL1        0.0370
      4 C         139.3456  138.7516  165.2962 C.ar    1  UNL1        0.1415
      5 C         140.8024  139.1030  165.3617 C.ar    1  UNL1        0.0699
      6 C         141.3498  139.8107  166.5656 C.ar    1  UNL1        0.0061
      7 C         141.8740  138.8420  164.3451 C.ar    1  UNL1        0.1704
      8 N         143.3062  139.2470  164.5315 N.ar    1  UNL1       -0.1273
      9 N         144.0709  138.8203  163.3136 N.ar    1  UNL1       -0.1127
     10 C         143.1113  138.1516  162.3746 C.ar    1  UNL1        0.2224
     11 N         141.7535  138.1649  163.0120 N.ar    1  UNL1       -0.2796
     12 C         140.5317  137.5818  162.3663 C.3     1  UNL1        0.1574
     13 C         139.1285  137.5317  162.8940 C.3     1  UNL1        0.2299
     14 O         138.6007  138.0523  164.1980 O.3     1  UNL1       -0.4733
     15 C         144.3487  142.6237  170.0895 C.3     1  UNL1        0.0521
     16 C         142.9421  142.1030  170.1008 C.ar    1  UNL1        0.0594
     17 C         142.3946  141.3953  168.8968 C.ar    1  UNL1        0.0147
     18 C         140.9880  140.8746  168.9081 C.ar    1  UNL1        0.0027
     19 C         140.1287  141.0615  170.1234 C.ar    1  UNL1        0.0207
     20 C         140.6762  141.7691  171.3273 C.ar    1  UNL1        0.0984
     21 N         142.0829  142.2899  171.3161 N.ar    1  UNL1       -0.2481
     22 N         143.4500  137.5713  161.0334 N.pl3   1  UNL1       -0.2825
     23 H         143.8247  136.6631  160.9705 H       1  UNL1        0.1551
     24 C         143.2180  138.3748  159.7882 C.ar    1  UNL1        0.0535
     25 C         142.6500  137.7166  158.5659 C.ar    1  UNL1        0.0149
     26 C         142.4180  138.5202  157.3207 C.ar    1  UNL1        0.0044
     27 C         142.7540  139.9819  157.2979 C.ar    1  UNL1        0.0373
     28 C         143.3220  140.6401  158.5202 C.ar    1  UNL1        0.1480
     29 C         143.5540  139.8365  159.7654 C.ar    1  UNL1        0.0518
     30 O         143.6580  142.1018  158.4975 O.3     1  UNL1       -0.4044
     31 C         145.0768  142.5421  158.2896 C.3     1  UNL1        0.5753
     32 F         146.4956  142.9823  158.0817 F       1  UNL1       -0.1328
     33 F         145.2571  142.6618  159.7738 F       1  UNL1       -0.1328
     34 F         144.8964  142.4223  156.8053 F       1  UNL1       -0.1328
@<TRIPOS>BOND
     1    15    16    1
     2    16    17   ar
     3    17    18   ar
     4    18     1    1
     5     1     2   ar
     6     2     3   ar
     7     3     4   ar
     8     4     5   ar
     9     5     6   ar
    10     5     7    1
    11     7     8   ar
    12     8     9   ar
    13     9    10   ar
    14    10    22    1
    15    22    24    1
    16    24    25   ar
    17    25    26   ar
    18    26    27   ar
    19    27    28   ar
    20    28    30    1
    21    30    31    1
    22    31    32    1
    23    31    33    1
    24    31    34    1
    25    28    29   ar
    26    10    11   ar
    27    11    12    1
    28    12    13    1
    29    13    14    1
    30    18    19   ar
    31    19    20   ar
    32    20    21   ar
    33    21    16   ar
    34     6     1   ar
    35    11     7   ar
    36    14     4    1
    37    29    24   ar
    38    22    23    1
@<TRIPOS>MOLECULE
*****
 34 38 0 0 0
SMALL
GASTEIGER

@<TRIPOS>ATOM
      1 C         139.8908  140.0993  167.4646 C.ar    1  UNL1        0.0004
      2 C         138.6456  139.2857  167.2718 C.ar    1  UNL1        0.0031
      3 C         138.3908  138.6039  165.9603 C.ar    1  UNL1        0.0370
      4 C         139.3813  138.7357  164.8415 C.ar    1  UNL1        0.1415
      5 C         140.6265  139.5494  165.0343 C.ar    1  UNL1        0.0699
      6 C         140.8813  140.2312  166.3459 C.ar    1  UNL1        0.0061
      7 C         141.7350  139.8086  164.0576 C.ar    1  UNL1        0.1704
      8 N         142.9372  140.6474  164.3753 N.ar    1  UNL1       -0.1273
      9 N         143.8172  140.6753  163.1609 N.ar    1  UNL1       -0.1127
     10 C         143.1588  139.8536  162.0926 C.ar    1  UNL1        0.2224
     11 N         141.8720  139.3179  162.6467 N.ar    1  UNL1       -0.2796
     12 C         140.9343  138.4470  161.8642 C.3     1  UNL1        0.1574
     13 C         139.6281  137.8517  162.2992 C.3     1  UNL1        0.2299
     14 O         138.9369  137.9802  163.6243 O.3     1  UNL1       -0.4733
     15 C         140.4079  144.4589  170.2445 C.3     1  UNL1        0.0521
     16 C         140.4042  142.9610  170.1661 C.ar    1  UNL1        0.0594
     17 C         140.1494  142.2791  168.8545 C.ar    1  UNL1        0.0147
     18 C         140.1457  140.7812  168.7762 C.ar    1  UNL1        0.0027
     19 C         140.3968  139.9651  170.0094 C.ar    1  UNL1        0.0207
     20 C         140.6517  140.6468  171.3210 C.ar    1  UNL1        0.0984
     21 N         140.6553  142.1448  171.3993 N.ar    1  UNL1       -0.2481
     22 N         143.6935  139.6104  160.7123 N.pl3   1  UNL1       -0.2825
     23 H         144.1239  138.7519  160.4954 H       1  UNL1        0.1551
     24 C         143.5725  140.6750  159.6626 C.ar    1  UNL1        0.0535
     25 C         143.9399  140.3711  158.2404 C.ar    1  UNL1        0.0149
     26 C         143.8189  141.4359  157.1907 C.ar    1  UNL1        0.0044
     27 C         143.3305  142.8043  157.5633 C.ar    1  UNL1        0.0373
     28 C         142.9631  143.1081  158.9855 C.ar    1  UNL1        0.1480
     29 C         143.0841  142.0434  160.0352 C.ar    1  UNL1        0.0518
     30 O         142.4747  144.4765  159.3581 O.3     1  UNL1       -0.4044
     31 C         141.1373  144.6419  160.0169 C.3     1  UNL1        0.5753
     32 F         139.7998  144.8073  160.6756 F       1  UNL1       -0.1328
     33 F         141.8163  144.9334  161.3222 F       1  UNL1       -0.1328
     34 F         140.4583  144.3505  158.7115 F       1  UNL1       -0.1328
@<TRIPOS>BOND
     1    15    16    1
     2    16    17   ar
     3    17    18   ar
     4    18     1    1
     5     1     2   ar
     6     2     3   ar
     7     3     4   ar
     8     4     5   ar
     9     5     6   ar
    10     5     7    1
    11     7     8   ar
    12     8     9   ar
    13     9    10   ar
    14    10    22    1
    15    22    24    1
    16    24    25   ar
    17    25    26   ar
    18    26    27   ar
    19    27    28   ar
    20    28    30    1
    21    30    31    1
    22    31    32    1
    23    31    33    1
    24    31    34    1
    25    28    29   ar
    26    10    11   ar
    27    11    12    1
    28    12    13    1
    29    13    14    1
    30    18    19   ar
    31    19    20   ar
    32    20    21   ar
    33    21    16   ar
    34     6     1   ar
    35    11     7   ar
    36    14     4    1
    37    29    24   ar
    38    22    23    1
@<TRIPOS>MOLECULE
*****
 34 38 0 0 0
SMALL
GASTEIGER

@<TRIPOS>ATOM
      1 C         142.2140  140.3936  167.1554 C.ar    1  UNL1        0.0004
      2 C         143.0279  139.1988  166.7555 C.ar    1  UNL1        0.0031
      3 C         143.6319  139.1276  165.3844 C.ar    1  UNL1        0.0370
      4 C         143.4220  140.2512  164.4131 C.ar    1  UNL1        0.1415
      5 C         142.6082  141.4461  164.8129 C.ar    1  UNL1        0.0699
      6 C         142.0042  141.5173  166.1841 C.ar    1  UNL1        0.0061
      7 C         142.2787  142.6661  164.0050 C.ar    1  UNL1        0.1704
      8 N         141.4477  143.8017  164.5244 N.ar    1  UNL1       -0.1273
      9 N         141.3371  144.8301  163.4380 N.ar    1  UNL1       -0.1127
     10 C         142.0997  144.3300  162.2471 C.ar    1  UNL1        0.2224
     11 N         142.6817  142.9926  162.5974 N.ar    1  UNL1       -0.2796
     12 C         143.5137  142.1797  161.6504 C.3     1  UNL1        0.1574
     13 C         144.1482  140.8395  161.8768 C.3     1  UNL1        0.2299
     14 O         144.1074  139.9813  163.1064 O.3     1  UNL1       -0.4733
     15 C         138.0713  140.0386  170.2718 C.3     1  UNL1        0.0521
     16 C         139.5386  140.2873  170.0848 C.ar    1  UNL1        0.0594
     17 C         140.1427  140.2161  168.7136 C.ar    1  UNL1        0.0147
     18 C         141.6100  140.4649  168.5266 C.ar    1  UNL1        0.0027
     19 C         142.4733  140.7849  169.7107 C.ar    1  UNL1        0.0207
     20 C         141.8694  140.8562  171.0819 C.ar    1  UNL1        0.0984
     21 N         140.4020  140.6074  171.2689 N.ar    1  UNL1       -0.2481
     22 N         142.2534  145.0423  160.9360 N.pl3   1  UNL1       -0.2825
     23 H         142.9528  145.7265  160.8265 H       1  UNL1        0.1551
     24 C         141.3415  144.7123  159.7916 C.ar    1  UNL1        0.0535
     25 C         140.3339  143.6098  159.9295 C.ar    1  UNL1        0.0149
     26 C         139.4220  143.2797  158.7851 C.ar    1  UNL1        0.0044
     27 C         139.5179  144.0522  157.5029 C.ar    1  UNL1        0.0373
     28 C         140.5256  145.1547  157.3650 C.ar    1  UNL1        0.1480
     29 C         141.4374  145.4847  158.5095 C.ar    1  UNL1        0.0518
     30 O         140.6214  145.9272  156.0828 O.3     1  UNL1       -0.4044
     31 C         139.5190  146.8646  155.6877 C.3     1  UNL1        0.5753
     32 F         138.4166  147.8019  155.2927 F       1  UNL1       -0.1328
     33 F         139.6862  146.4569  154.2540 F       1  UNL1       -0.1328
     34 F         139.3518  147.2722  157.1216 F       1  UNL1       -0.1328
@<TRIPOS>BOND
     1    15    16    1
     2    16    17   ar
     3    17    18   ar
     4    18     1    1
     5     1     2   ar
     6     2     3   ar
     7     3     4   ar
     8     4     5   ar
     9     5     6   ar
    10     5     7    1
    11     7     8   ar
    12     8     9   ar
    13     9    10   ar
    14    10    22    1
    15    22    24    1
    16    24    25   ar
    17    25    26   ar
    18    26    27   ar
    19    27    28   ar
    20    28    30    1
    21    30    31    1
    22    31    32    1
    23    31    33    1
    24    31    34    1
    25    28    29   ar
    26    10    11   ar
    27    11    12    1
    28    12    13    1
    29    13    14    1
    30    18    19   ar
    31    19    20   ar
    32    20    21   ar
    33    21    16   ar
    34     6     1   ar
    35    11     7   ar
    36    14     4    1
    37    29    24   ar
    38    22    23    1
@<TRIPOS>MOLECULE
*****
 34 38 0 0 0
SMALL
GASTEIGER

@<TRIPOS>ATOM
      1 C         141.4605  140.0912  167.4311 C.ar    1  UNL1        0.0004
      2 C         142.6776  139.2310  167.2618 C.ar    1  UNL1        0.0031
      3 C         142.9491  138.5666  165.9447 C.ar    1  UNL1        0.0370
      4 C         142.0034  138.7623  164.7969 C.ar    1  UNL1        0.1415
      5 C         140.7863  139.6225  164.9662 C.ar    1  UNL1        0.0699
      6 C         140.5149  140.2869  166.2833 C.ar    1  UNL1        0.0061
      7 C         139.7231  139.9472  163.9593 C.ar    1  UNL1        0.1704
      8 N         138.5457  140.8282  164.2554 N.ar    1  UNL1       -0.1273
      9 N         137.7094  140.9174  163.0134 N.ar    1  UNL1       -0.1127
     10 C         138.3699  140.0916  161.9496 C.ar    1  UNL1        0.2224
     11 N         139.6144  139.4919  162.5341 N.ar    1  UNL1       -0.2796
     12 C         140.5421  138.5995  161.7641 C.3     1  UNL1        0.1574
     13 C         141.8075  137.9419  162.2289 C.3     1  UNL1        0.2299
     14 O         142.4579  138.0144  163.5787 O.3     1  UNL1       -0.4733
     15 C         140.3328  144.3607  170.1696 C.3     1  UNL1        0.0521
     16 C         140.6252  142.8905  170.1175 C.ar    1  UNL1        0.0594
     17 C         140.8967  142.2260  168.8004 C.ar    1  UNL1        0.0147
     18 C         141.1891  140.7557  168.7483 C.ar    1  UNL1        0.0027
     19 C         141.2100  139.9498  170.0132 C.ar    1  UNL1        0.0207
     20 C         140.9386  140.6143  171.3303 C.ar    1  UNL1        0.0984
     21 N         140.6461  142.0846  171.3825 N.ar    1  UNL1       -0.2481
     22 N         137.8730  139.8992  160.5474 N.pl3   1  UNL1       -0.2825
     23 H         137.3364  139.1058  160.3198 H       1  UNL1        0.1551
     24 C         138.1938  140.9155  159.4918 C.ar    1  UNL1        0.0535
     25 C         137.7723  140.6804  158.0716 C.ar    1  UNL1        0.0149
     26 C         138.0931  141.6969  157.0161 C.ar    1  UNL1        0.0044
     27 C         138.8353  142.9482  157.3809 C.ar    1  UNL1        0.0373
     28 C         139.2567  143.1834  158.8011 C.ar    1  UNL1        0.1480
     29 C         138.9359  142.1669  159.8567 C.ar    1  UNL1        0.0518
     30 O         139.9988  144.4348  159.1660 O.3     1  UNL1       -0.4044
     31 C         140.7973  144.4904  160.4346 C.3     1  UNL1        0.5753
     32 F         141.5957  144.5461  161.7032 F       1  UNL1       -0.1328
     33 F         141.9117  143.7414  159.7661 F       1  UNL1       -0.1328
     34 F         139.6829  145.2395  161.1031 F       1  UNL1       -0.1328
@<TRIPOS>BOND
     1    15    16    1
     2    16    17   ar
     3    17    18   ar
     4    18     1    1
     5     1     2   ar
     6     2     3   ar
     7     3     4   ar
     8     4     5   ar
     9     5     6   ar
    10     5     7    1
    11     7     8   ar
    12     8     9   ar
    13     9    10   ar
    14    10    22    1
    15    22    24    1
    16    24    25   ar
    17    25    26   ar
    18    26    27   ar
    19    27    28   ar
    20    28    30    1
    21    30    31    1
    22    31    32    1
    23    31    33    1
    24    31    34    1
    25    28    29   ar
    26    10    11   ar
    27    11    12    1
    28    12    13    1
    29    13    14    1
    30    18    19   ar
    31    19    20   ar
    32    20    21   ar
    33    21    16   ar
    34     6     1   ar
    35    11     7   ar
    36    14     4    1
    37    29    24   ar
    38    22    23    1
@<TRIPOS>MOLECULE
*****
 34 38 0 0 0
SMALL
GASTEIGER

@<TRIPOS>ATOM
      1 C         142.2794  140.2382  167.2736 C.ar    1  UNL1        0.0004
      2 C         143.0758  139.0170  166.9210 C.ar    1  UNL1        0.0031
      3 C         143.6989  138.8946  165.5620 C.ar    1  UNL1        0.0370
      4 C         143.5255  139.9934  164.5557 C.ar    1  UNL1        0.1415
      5 C         142.7291  141.2145  164.9084 C.ar    1  UNL1        0.0699
      6 C         142.1060  141.3369  166.2673 C.ar    1  UNL1        0.0061
      7 C         142.4355  142.4166  164.0607 C.ar    1  UNL1        0.1704
      8 N         141.6190  143.5824  164.5342 N.ar    1  UNL1       -0.1273
      9 N         141.5447  144.5807  163.4171 N.ar    1  UNL1       -0.1127
     10 C         142.3153  144.0319  162.2531 C.ar    1  UNL1        0.2224
     11 N         142.8659  142.6945  162.6508 N.ar    1  UNL1       -0.2796
     12 C         143.6961  141.8388  161.7406 C.3     1  UNL1        0.1574
     13 C         144.3010  140.4940  162.0153 C.3     1  UNL1        0.2299
     14 O         144.2251  139.6727  163.2682 O.3     1  UNL1       -0.4733
     15 C         138.0840  140.0528  170.3339 C.3     1  UNL1        0.0521
     16 C         139.5586  140.2679  170.1628 C.ar    1  UNL1        0.0594
     17 C         140.1817  140.1455  168.8038 C.ar    1  UNL1        0.0147
     18 C         141.6563  140.3606  168.6326 C.ar    1  UNL1        0.0027
     19 C         142.5078  140.6982  169.8205 C.ar    1  UNL1        0.0207
     20 C         141.8848  140.8207  171.1794 C.ar    1  UNL1        0.0984
     21 N         140.4101  140.6055  171.3506 N.ar    1  UNL1       -0.2481
     22 N         142.5025  144.7029  160.9246 N.pl3   1  UNL1       -0.2825
     23 H         143.2731  145.2978  160.7779 H       1  UNL1        0.1551
     24 C         141.5156  144.4675  159.8198 C.ar    1  UNL1        0.0535
     25 C         141.4373  145.4247  158.6676 C.ar    1  UNL1        0.0149
     26 C         140.4504  145.1893  157.5627 C.ar    1  UNL1        0.0044
     27 C         139.5420  143.9966  157.6101 C.ar    1  UNL1        0.0373
     28 C         139.6203  143.0394  158.7623 C.ar    1  UNL1        0.1480
     29 C         140.6072  143.2749  159.8672 C.ar    1  UNL1        0.0518
     30 O         138.7119  141.8468  158.8097 O.3     1  UNL1       -0.4044
     31 C         138.3675  141.2181  160.1274 C.3     1  UNL1        0.5753
     32 F         138.0232  140.5895  161.4451 F       1  UNL1       -0.1328
     33 F         138.9838  139.9283  159.6732 F       1  UNL1       -0.1328
     34 F         137.7512  142.5080  160.5817 F       1  UNL1       -0.1328
@<TRIPOS>BOND
     1    15    16    1
     2    16    17   ar
     3    17    18   ar
     4    18     1    1
     5     1     2   ar
     6     2     3   ar
     7     3     4   ar
     8     4     5   ar
     9     5     6   ar
    10     5     7    1
    11     7     8   ar
    12     8     9   ar
    13     9    10   ar
    14    10    22    1
    15    22    24    1
    16    24    25   ar
    17    25    26   ar
    18    26    27   ar
    19    27    28   ar
    20    28    30    1
    21    30    31    1
    22    31    32    1
    23    31    33    1
    24    31    34    1
    25    28    29   ar
    26    10    11   ar
    27    11    12    1
    28    12    13    1
    29    13    14    1
    30    18    19   ar
    31    19    20   ar
    32    20    21   ar
    33    21    16   ar
    34     6     1   ar
    35    11     7   ar
    36    14     4    1
    37    29    24   ar
    38    22    23    1
@<TRIPOS>MOLECULE
*****
 34 38 0 0 0
SMALL
GASTEIGER

@<TRIPOS>ATOM
      1 C         141.4338  141.8303  165.4971 C.ar    1  UNL1        0.0004
      2 C         140.3359  142.6233  166.1418 C.ar    1  UNL1        0.0031
      3 C         139.6879  143.7515  165.3954 C.ar    1  UNL1        0.0370
      4 C         140.1379  144.0868  164.0042 C.ar    1  UNL1        0.1415
      5 C         141.2358  143.2938  163.3596 C.ar    1  UNL1        0.0699
      6 C         141.8838  142.1655  164.1060 C.ar    1  UNL1        0.0061
      7 C         141.8309  143.4599  161.9928 C.ar    1  UNL1        0.1704
      8 N         142.9347  142.5943  161.4612 N.ar    1  UNL1       -0.1273
      9 N         143.2610  143.0596  160.0730 N.ar    1  UNL1       -0.1127
     10 C         142.3590  144.2127  159.7466 C.ar    1  UNL1        0.2224
     11 N         141.4751  144.4601  160.9330 N.ar    1  UNL1       -0.2796
     12 C         140.4362  145.5412  160.9784 C.3     1  UNL1        0.1574
     13 C         139.4967  145.8891  162.0947 C.3     1  UNL1        0.2299
     14 O         139.3639  145.2418  163.4414 O.3     1  UNL1       -0.4733
     15 C         142.4420  139.3856  169.9701 C.3     1  UNL1        0.0521
     16 C         142.5860  139.4797  168.4800 C.ar    1  UNL1        0.0594
     17 C         141.9379  140.6080  167.7336 C.ar    1  UNL1        0.0147
     18 C         142.0819  140.7021  166.2435 C.ar    1  UNL1        0.0027
     19 C         142.8740  139.6679  165.4998 C.ar    1  UNL1        0.0207
     20 C         143.5220  138.5396  166.2461 C.ar    1  UNL1        0.0984
     21 N         143.3780  138.4455  167.7363 N.ar    1  UNL1       -0.2481
     22 N         142.3435  144.9831  158.4597 N.pl3   1  UNL1       -0.2825
     23 H         143.0790  145.6023  158.2478 H       1  UNL1        0.1551
     24 C         141.2075  144.8102  157.4955 C.ar    1  UNL1        0.0535
     25 C         140.8375  143.4399  157.0104 C.ar    1  UNL1        0.0149
     26 C         139.7014  143.2671  156.0463 C.ar    1  UNL1        0.0044
     27 C         138.9354  144.4645  155.5674 C.ar    1  UNL1        0.0373
     28 C         139.3054  145.8348  156.0525 C.ar    1  UNL1        0.1480
     29 C         140.4415  146.0076  157.0166 C.ar    1  UNL1        0.0518
     30 O         138.5395  147.0322  155.5735 O.3     1  UNL1       -0.4044
     31 C         139.2709  148.2132  155.0074 C.3     1  UNL1        0.5753
     32 F         140.0023  149.3941  154.4413 F       1  UNL1       -0.1328
     33 F         139.9373  147.3194  154.0039 F       1  UNL1       -0.1328
     34 F         138.6045  149.1069  156.0109 F       1  UNL1       -0.1328
@<TRIPOS>BOND
     1    15    16    1
     2    16    17   ar
     3    17    18   ar
     4    18     1    1
     5     1     2   ar
     6     2     3   ar
     7     3     4   ar
     8     4     5   ar
     9     5     6   ar
    10     5     7    1
    11     7     8   ar
    12     8     9   ar
    13     9    10   ar
    14    10    22    1
    15    22    24    1
    16    24    25   ar
    17    25    26   ar
    18    26    27   ar
    19    27    28   ar
    20    28    30    1
    21    30    31    1
    22    31    32    1
    23    31    33    1
    24    31    34    1
    25    28    29   ar
    26    10    11   ar
    27    11    12    1
    28    12    13    1
    29    13    14    1
    30    18    19   ar
    31    19    20   ar
    32    20    21   ar
    33    21    16   ar
    34     6     1   ar
    35    11     7   ar
    36    14     4    1
    37    29    24   ar
    38    22    23    1
