@<TRIPOS>MOLECULE
*****
 29 32 0 0 0
SMALL
GASTEIGER

@<TRIPOS>ATOM
      1 N         137.3663  140.8984  164.2285 N.3     1  UNL1       -0.2908
      2 H         137.1357  141.1141  165.1984 H       1  UNL1        0.1237
      3 C         138.4221  139.8334  164.2610 C.3     1  UNL1        0.1341
      4 C         141.0254  140.7310  166.9964 C.ar    1  UNL1        0.1449
      5 C         141.6039  139.4584  166.4523 C.ar    1  UNL1        0.0403
      6 C         140.6990  138.9674  165.3613 C.ar    1  UNL1        0.0375
      7 C         139.5614  139.9363  165.2313 C.ar    1  UNL1        0.1388
      8 O         139.7631  141.0263  166.2418 O.2     1  UNL1       -0.4564
      9 O         143.3522  144.0561  171.4157 O.3     1  UNL1       -0.5055
     10 C         142.7705  143.2249  170.3109 C.ar    1  UNL1        0.1337
     11 C         141.3442  143.4258  169.8925 C.ar    1  UNL1        0.0367
     12 C         140.7625  142.5945  168.7876 C.ar    1  UNL1        0.0061
     13 C         141.6072  141.5623  168.1013 C.ar    1  UNL1        0.0347
     14 C         143.0335  141.3614  168.5197 C.ar    1  UNL1        0.0061
     15 C         143.6152  142.1926  169.6245 C.ar    1  UNL1        0.0367
     16 H         142.8246  144.7009  171.8444 H       1  UNL1        0.2922
     17 C         137.6411  142.2063  163.5475 C.3     1  UNL1        0.0737
     18 C         138.3784  143.2908  164.2758 C.3     1  UNL1        0.0451
     19 C         139.3826  144.1344  163.5479 C.ar    1  UNL1        0.0013
     20 C         139.0808  145.1244  162.4621 C.ar    1  UNL1        0.0963
     21 N         140.3766  145.7379  162.0211 N.ar    1  UNL1       -0.2273
     22 C         141.4792  145.1271  162.8342 C.ar    1  UNL1        0.1404
     23 N         142.9632  145.3453  162.8373 N.ar    1  UNL1       -0.3356
     24 C         143.8329  144.5724  163.7840 C.ar    1  UNL1        0.1035
     25 C         143.2186  143.5814  164.7276 C.ar    1  UNL1        0.1572
     26 F         144.0883  142.8085  165.6744 F       1  UNL1       -0.2026
     27 C         141.7345  143.3632  164.7245 C.ar    1  UNL1        0.0339
     28 C         140.8649  144.1361  163.7778 C.ar    1  UNL1        0.0338
     29 H         143.3664  145.9958  162.2180 H       1  UNL1        0.1675
@<TRIPOS>BOND
     1     9    10    1
     2    10    11   ar
     3    11    12   ar
     4    12    13   ar
     5    13     4    1
     6     4     5   ar
     7     5     6   ar
     8     6     7   ar
     9     7     3    1
    10     3     1    1
    11     1    17    1
    12    17    18    1
    13    18    19    1
    14    19    20   ar
    15    20    21   ar
    16    21    22   ar
    17    22    23   ar
    18    23    24   ar
    19    24    25   ar
    20    25    26    1
    21    25    27   ar
    22    27    28   ar
    23     7     8   ar
    24    13    14   ar
    25    14    15   ar
    26    15    10   ar
    27     8     4   ar
    28    28    19   ar
    29    28    22    1
    30     9    16    1
    31     1     2    1
    32    23    29    1
@<TRIPOS>MOLECULE
*****
 29 32 0 0 0
SMALL
GASTEIGER

@<TRIPOS>ATOM
      1 N         137.6983  139.5627  162.5029 N.3     1  UNL1       -0.2908
      2 H         137.0430  140.0170  161.8667 H       1  UNL1        0.1237
      3 C         138.2386  140.6327  163.4047 C.3     1  UNL1        0.1341
      4 C         139.4720  140.4683  167.0812 C.ar    1  UNL1        0.1449
      5 C         138.7472  139.1606  166.9600 C.ar    1  UNL1        0.0403
      6 C         138.1970  139.0631  165.5679 C.ar    1  UNL1        0.0375
      7 C         138.5816  140.3104  164.8289 C.ar    1  UNL1        0.1388
      8 O         139.3697  141.1789  165.7641 O.2     1  UNL1       -0.4564
      9 O         142.2863  142.5002  171.9752 O.3     1  UNL1       -0.5055
     10 C         141.5827  141.9923  170.7517 C.ar    1  UNL1        0.1337
     11 C         141.2924  142.9238  169.6124 C.ar    1  UNL1        0.0367
     12 C         140.5889  142.4158  168.3890 C.ar    1  UNL1        0.0061
     13 C         140.1756  140.9763  168.3048 C.ar    1  UNL1        0.0347
     14 C         140.4659  140.0448  169.4440 C.ar    1  UNL1        0.0061
     15 C         141.1695  140.5528  170.6675 C.ar    1  UNL1        0.0367
     16 H         142.5445  143.3994  172.0278 H       1  UNL1        0.2922
     17 C         138.6342  138.7532  161.6551 C.3     1  UNL1        0.0737
     18 C         139.6362  137.8438  162.3026 C.3     1  UNL1        0.0451
     19 C         141.1038  138.1092  162.1417 C.ar    1  UNL1        0.0013
     20 C         141.8736  138.0557  160.8555 C.ar    1  UNL1        0.0963
     21 N         143.3048  138.3881  161.1578 N.ar    1  UNL1       -0.2273
     22 C         143.4194  138.6469  162.6308 C.ar    1  UNL1        0.1404
     23 N         144.5867  139.0173  163.4970 N.ar    1  UNL1       -0.3356
     24 C         144.3937  139.2153  164.9712 C.ar    1  UNL1        0.1035
     25 C         143.0334  139.0429  165.5794 C.ar    1  UNL1        0.1572
     26 F         142.8404  139.2409  167.0537 F       1  UNL1       -0.2026
     27 C         141.8661  138.6725  164.7132 C.ar    1  UNL1        0.0339
     28 C         142.0591  138.4745  163.2390 C.ar    1  UNL1        0.0338
     29 H         145.4795  139.1304  163.0978 H       1  UNL1        0.1675
@<TRIPOS>BOND
     1     9    10    1
     2    10    11   ar
     3    11    12   ar
     4    12    13   ar
     5    13     4    1
     6     4     5   ar
     7     5     6   ar
     8     6     7   ar
     9     7     3    1
    10     3     1    1
    11     1    17    1
    12    17    18    1
    13    18    19    1
    14    19    20   ar
    15    20    21   ar
    16    21    22   ar
    17    22    23   ar
    18    23    24   ar
    19    24    25   ar
    20    25    26    1
    21    25    27   ar
    22    27    28   ar
    23     7     8   ar
    24    13    14   ar
    25    14    15   ar
    26    15    10   ar
    27     8     4   ar
    28    28    19   ar
    29    28    22    1
    30     9    16    1
    31     1     2    1
    32    23    29    1
@<TRIPOS>MOLECULE
*****
 29 32 0 0 0
SMALL
GASTEIGER

@<TRIPOS>ATOM
      1 N         137.7763  143.8326  163.3809 N.3     1  UNL1       -0.2908
      2 H         137.2292  144.5177  162.8596 H       1  UNL1        0.1237
      3 C         139.0723  144.4966  163.7406 C.3     1  UNL1        0.1341
      4 C         141.1757  142.7174  166.4746 C.ar    1  UNL1        0.1449
      5 C         142.0786  142.5872  165.2839 C.ar    1  UNL1        0.0403
      6 C         141.4005  143.2379  164.1148 C.ar    1  UNL1        0.0375
      7 C         140.0786  143.7702  164.5829 C.ar    1  UNL1        0.1388
      8 O         139.9397  143.4485  166.0415 O.2     1  UNL1       -0.4564
      9 O         142.3096  140.6727  172.0004 O.3     1  UNL1       -0.5055
     10 C         142.0261  141.1838  170.6190 C.ar    1  UNL1        0.1337
     11 C         143.1591  141.4784  169.6811 C.ar    1  UNL1        0.0367
     12 C         142.8756  141.9895  168.2997 C.ar    1  UNL1        0.0061
     13 C         141.4592  142.2062  167.8562 C.ar    1  UNL1        0.0347
     14 C         140.3262  141.9116  168.7940 C.ar    1  UNL1        0.0061
     15 C         140.6097  141.4005  170.1754 C.ar    1  UNL1        0.0367
     16 H         143.1944  140.5373  172.2775 H       1  UNL1        0.2922
     17 C         137.7797  142.5720  162.5680 C.3     1  UNL1        0.0737
     18 C         137.3896  141.2697  163.2019 C.3     1  UNL1        0.0451
     19 C         138.0841  140.0022  162.8003 C.ar    1  UNL1        0.0013
     20 C         137.7979  139.1914  161.5712 C.ar    1  UNL1        0.0963
     21 N         138.7237  138.0112  161.5686 N.ar    1  UNL1       -0.2273
     22 C         139.5820  138.0926  162.7960 C.ar    1  UNL1        0.1404
     23 N         140.6725  137.2052  163.3188 N.ar    1  UNL1       -0.3356
     24 C         141.3676  137.5483  164.6029 C.ar    1  UNL1        0.1035
     25 C         140.9723  138.7789  165.3642 C.ar    1  UNL1        0.1572
     26 F         141.6676  139.1220  166.6484 F       1  UNL1       -0.2026
     27 C         139.8819  139.6663  164.8414 C.ar    1  UNL1        0.0339
     28 C         139.1867  139.3231  163.5573 C.ar    1  UNL1        0.0338
     29 H         140.9319  136.3976  162.8192 H       1  UNL1        0.1675
@<TRIPOS>BOND
     1     9    10    1
     2    10    11   ar
     3    11    12   ar
     4    12    13   ar
     5    13     4    1
     6     4     5   ar
     7     5     6   ar
     8     6     7   ar
     9     7     3    1
    10     3     1    1
    11     1    17    1
    12    17    18    1
    13    18    19    1
    14    19    20   ar
    15    20    21   ar
    16    21    22   ar
    17    22    23   ar
    18    23    24   ar
    19    24    25   ar
    20    25    26    1
    21    25    27   ar
    22    27    28   ar
    23     7     8   ar
    24    13    14   ar
    25    14    15   ar
    26    15    10   ar
    27     8     4   ar
    28    28    19   ar
    29    28    22    1
    30     9    16    1
    31     1     2    1
    32    23    29    1
@<TRIPOS>MOLECULE
*****
 29 32 0 0 0
SMALL
GASTEIGER

@<TRIPOS>ATOM
      1 N         144.7751  143.6247  163.0805 N.3     1  UNL1       -0.2908
      2 H         145.5253  143.8346  162.4220 H       1  UNL1        0.1237
      3 C         144.9243  142.1816  163.4613 C.3     1  UNL1        0.1341
      4 C         142.8264  141.3106  166.6085 C.ar    1  UNL1        0.1449
      5 C         142.6216  140.0809  165.7743 C.ar    1  UNL1        0.0403
      6 C         143.3826  140.2576  164.4938 C.ar    1  UNL1        0.0375
      7 C         144.0577  141.5963  164.5366 C.ar    1  UNL1        0.1388
      8 O         143.7139  142.2472  165.8436 O.2     1  UNL1       -0.4564
      9 O         140.5030  142.3080  172.0498 O.3     1  UNL1       -0.5055
     10 C         141.0838  142.0586  170.6895 C.ar    1  UNL1        0.1337
     11 C         140.5000  142.7411  169.4882 C.ar    1  UNL1        0.0367
     12 C         141.0809  142.4918  168.1279 C.ar    1  UNL1        0.0061
     13 C         142.2455  141.5599  167.9689 C.ar    1  UNL1        0.0347
     14 C         142.8293  140.8774  169.1703 C.ar    1  UNL1        0.0061
     15 C         142.2485  141.1268  170.5306 C.ar    1  UNL1        0.0367
     16 H         139.7755  142.8901  172.1491 H       1  UNL1        0.2922
     17 C         143.5008  144.1069  162.4530 C.3     1  UNL1        0.0737
     18 C         142.5839  145.0138  163.2191 C.3     1  UNL1        0.0451
     19 C         141.1079  144.9867  162.9531 C.ar    1  UNL1        0.0013
     20 C         140.3574  145.9201  162.0501 C.ar    1  UNL1        0.0963
     21 N         138.9089  145.5316  162.0824 N.ar    1  UNL1       -0.2273
     22 C         138.7642  144.3581  163.0055 C.ar    1  UNL1        0.1404
     23 N         137.5705  143.5528  163.4256 N.ar    1  UNL1       -0.3356
     24 C         137.7359  142.4106  164.3837 C.ar    1  UNL1        0.1035
     25 C         139.0949  142.0739  164.9219 C.ar    1  UNL1        0.1572
     26 F         139.2603  140.9317  165.8801 F       1  UNL1       -0.2026
     27 C         140.2886  142.8792  164.5018 C.ar    1  UNL1        0.0339
     28 C         140.1233  144.0214  163.5437 C.ar    1  UNL1        0.0338
     29 H         136.6786  143.7738  163.0724 H       1  UNL1        0.1675
@<TRIPOS>BOND
     1     9    10    1
     2    10    11   ar
     3    11    12   ar
     4    12    13   ar
     5    13     4    1
     6     4     5   ar
     7     5     6   ar
     8     6     7   ar
     9     7     3    1
    10     3     1    1
    11     1    17    1
    12    17    18    1
    13    18    19    1
    14    19    20   ar
    15    20    21   ar
    16    21    22   ar
    17    22    23   ar
    18    23    24   ar
    19    24    25   ar
    20    25    26    1
    21    25    27   ar
    22    27    28   ar
    23     7     8   ar
    24    13    14   ar
    25    14    15   ar
    26    15    10   ar
    27     8     4   ar
    28    28    19   ar
    29    28    22    1
    30     9    16    1
    31     1     2    1
    32    23    29    1
@<TRIPOS>MOLECULE
*****
 29 32 0 0 0
SMALL
GASTEIGER

@<TRIPOS>ATOM
      1 N         140.9304  145.8625  163.0887 N.3     1  UNL1       -0.2908
      2 H         141.1778  146.7309  162.6142 H       1  UNL1        0.1237
      3 C         142.1048  144.9405  162.9445 C.3     1  UNL1        0.1341
      4 C         142.4436  142.6487  166.0587 C.ar    1  UNL1        0.1449
      5 C         143.8814  142.8194  165.6667 C.ar    1  UNL1        0.0403
      6 C         143.9294  143.6987  164.4523 C.ar    1  UNL1        0.0375
      7 C         142.5214  144.0715  164.0939 C.ar    1  UNL1        0.1388
      8 O         141.6031  143.4226  165.0867 O.2     1  UNL1       -0.4564
      9 O         140.4114  139.4350  170.7001 O.3     1  UNL1       -0.5055
     10 C         140.9194  140.2384  169.5398 C.ar    1  UNL1        0.1337
     11 C         141.9950  139.6810  168.6553 C.ar    1  UNL1        0.0367
     12 C         142.5031  140.4845  167.4949 C.ar    1  UNL1        0.0061
     13 C         141.9355  141.8453  167.2191 C.ar    1  UNL1        0.0347
     14 C         140.8599  142.4027  168.1036 C.ar    1  UNL1        0.0061
     15 C         140.3518  141.5992  169.2639 C.ar    1  UNL1        0.0367
     16 H         140.7660  138.5849  170.8724 H       1  UNL1        0.2922
     17 C         139.5857  145.4515  162.5662 C.3     1  UNL1        0.0737
     18 C         138.7554  144.4617  163.3285 C.3     1  UNL1        0.0451
     19 C         138.5395  143.0829  162.7788 C.ar    1  UNL1        0.0013
     20 C         138.2850  142.7365  161.3417 C.ar    1  UNL1        0.0963
     21 N         138.1283  141.2479  161.2445 N.ar    1  UNL1       -0.2273
     22 C         138.2860  140.6742  162.6215 C.ar    1  UNL1        0.1404
     23 N         138.2309  139.2658  163.1343 N.ar    1  UNL1       -0.3356
     24 C         138.4300  138.9914  164.5955 C.ar    1  UNL1        0.1035
     25 C         138.6841  140.1255  165.5438 C.ar    1  UNL1        0.1572
     26 F         138.8831  139.8510  167.0050 F       1  UNL1       -0.2026
     27 C         138.7391  141.5339  165.0309 C.ar    1  UNL1        0.0339
     28 C         138.5400  141.8083  163.5698 C.ar    1  UNL1        0.0338
     29 H         138.0642  138.5214  162.5119 H       1  UNL1        0.1675
@<TRIPOS>BOND
     1     9    10    1
     2    10    11   ar
     3    11    12   ar
     4    12    13   ar
     5    13     4    1
     6     4     5   ar
     7     5     6   ar
     8     6     7   ar
     9     7     3    1
    10     3     1    1
    11     1    17    1
    12    17    18    1
    13    18    19    1
    14    19    20   ar
    15    20    21   ar
    16    21    22   ar
    17    22    23   ar
    18    23    24   ar
    19    24    25   ar
    20    25    26    1
    21    25    27   ar
    22    27    28   ar
    23     7     8   ar
    24    13    14   ar
    25    14    15   ar
    26    15    10   ar
    27     8     4   ar
    28    28    19   ar
    29    28    22    1
    30     9    16    1
    31     1     2    1
    32    23    29    1
@<TRIPOS>MOLECULE
*****
 29 32 0 0 0
SMALL
GASTEIGER

@<TRIPOS>ATOM
      1 N         140.2701  137.6316  163.1163 N.3     1  UNL1       -0.2908
      2 H         140.3663  136.6581  162.8275 H       1  UNL1        0.1237
      3 C         141.6459  138.1185  163.4628 C.3     1  UNL1        0.1341
      4 C         141.9992  140.6663  166.3696 C.ar    1  UNL1        0.1449
      5 C         142.1599  141.5626  165.1775 C.ar    1  UNL1        0.0403
      6 C         142.0470  140.7172  163.9436 C.ar    1  UNL1        0.0375
      7 C         141.8167  139.2986  164.3729 C.ar    1  UNL1        0.1388
      8 O         141.7871  139.2671  165.8723 O.2     1  UNL1       -0.4564
      9 O         142.1744  142.3776  172.1177 O.3     1  UNL1       -0.5055
     10 C         142.1306  141.9498  170.6807 C.ar    1  UNL1        0.1337
     11 C         142.6925  140.6189  170.2770 C.ar    1  UNL1        0.0367
     12 C         142.6487  140.1911  168.8399 C.ar    1  UNL1        0.0061
     13 C         142.0430  141.0942  167.8066 C.ar    1  UNL1        0.0347
     14 C         141.4811  142.4251  168.2104 C.ar    1  UNL1        0.0061
     15 C         141.5249  142.8529  169.6474 C.ar    1  UNL1        0.0367
     16 H         142.5527  141.8135  172.7632 H       1  UNL1        0.2922
     17 C         139.1791  137.6724  164.1449 C.3     1  UNL1        0.0737
     18 C         138.5403  138.9798  164.5094 C.3     1  UNL1        0.0451
     19 C         138.1903  139.9683  163.4368 C.ar    1  UNL1        0.0013
     20 C         137.7940  139.6377  162.0284 C.ar    1  UNL1        0.0963
     21 N         137.5340  140.9261  161.3056 N.ar    1  UNL1       -0.2273
     22 C         137.7696  142.0529  162.2672 C.ar    1  UNL1        0.1404
     23 N         137.6673  143.5415  162.1136 N.ar    1  UNL1       -0.3356
     24 C         137.9706  144.4381  163.2772 C.ar    1  UNL1        0.1035
     25 C         138.3762  143.8462  164.5944 C.ar    1  UNL1        0.1572
     26 F         138.6795  144.7429  165.7580 F       1  UNL1       -0.2026
     27 C         138.4786  142.3576  164.7480 C.ar    1  UNL1        0.0339
     28 C         138.1753  141.4610  163.5844 C.ar    1  UNL1        0.0338
     29 H         137.4010  143.9300  161.2490 H       1  UNL1        0.1675
@<TRIPOS>BOND
     1     9    10    1
     2    10    11   ar
     3    11    12   ar
     4    12    13   ar
     5    13     4    1
     6     4     5   ar
     7     5     6   ar
     8     6     7   ar
     9     7     3    1
    10     3     1    1
    11     1    17    1
    12    17    18    1
    13    18    19    1
    14    19    20   ar
    15    20    21   ar
    16    21    22   ar
    17    22    23   ar
    18    23    24   ar
    19    24    25   ar
    20    25    26    1
    21    25    27   ar
    22    27    28   ar
    23     7     8   ar
    24    13    14   ar
    25    14    15   ar
    26    15    10   ar
    27     8     4   ar
    28    28    19   ar
    29    28    22    1
    30     9    16    1
    31     1     2    1
    32    23    29    1
@<TRIPOS>MOLECULE
*****
 29 32 0 0 0
SMALL
GASTEIGER

@<TRIPOS>ATOM
      1 N         145.3134  142.4812  163.0462 N.3     1  UNL1       -0.2908
      2 H         146.2288  142.2718  162.6480 H       1  UNL1        0.1237
      3 C         144.7586  141.1862  163.5611 C.3     1  UNL1        0.1341
      4 C         141.5584  140.5641  165.6675 C.ar    1  UNL1        0.1449
      5 C         142.0612  141.8404  166.2744 C.ar    1  UNL1        0.0403
      6 C         143.3213  142.2287  165.5591 C.ar    1  UNL1        0.0375
      7 C         143.5972  141.1925  164.5103 C.ar    1  UNL1        0.1388
      8 O         142.5077  140.1637  164.5772 O.2     1  UNL1       -0.4564
      9 O         136.6176  137.5837  167.3125 O.3     1  UNL1       -0.5055
     10 C         137.8528  138.3288  166.9012 C.ar    1  UNL1        0.1337
     11 C         138.3940  139.4227  167.7732 C.ar    1  UNL1        0.0367
     12 C         139.6292  140.1678  167.3620 C.ar    1  UNL1        0.0061
     13 C         140.3232  139.8189  166.0787 C.ar    1  UNL1        0.0347
     14 C         139.7820  138.7250  165.2067 C.ar    1  UNL1        0.0061
     15 C         138.5468  137.9799  165.6180 C.ar    1  UNL1        0.0367
     16 H         136.1841  137.8016  168.1141 H       1  UNL1        0.2922
     17 C         144.5589  143.2612  162.0106 C.3     1  UNL1        0.0737
     18 C         143.4368  144.1669  162.4240 C.3     1  UNL1        0.0451
     19 C         142.0627  143.9654  161.8572 C.ar    1  UNL1        0.0013
     20 C         141.7413  143.5202  160.4613 C.ar    1  UNL1        0.0963
     21 N         140.2487  143.4533  160.3282 N.ar    1  UNL1       -0.2273
     22 C         139.6477  143.8572  161.6419 C.ar    1  UNL1        0.1404
     23 N         138.2243  143.9776  162.0997 N.ar    1  UNL1       -0.3356
     24 C         137.9221  144.4145  163.5024 C.ar    1  UNL1        0.1035
     25 C         139.0433  144.7310  164.4473 C.ar    1  UNL1        0.1572
     26 F         138.7410  145.1680  165.8501 F       1  UNL1       -0.2026
     27 C         140.4666  144.6106  163.9896 C.ar    1  UNL1        0.0339
     28 C         140.7688  144.1737  162.5868 C.ar    1  UNL1        0.0338
     29 H         137.4885  143.7699  161.4794 H       1  UNL1        0.1675
@<TRIPOS>BOND
     1     9    10    1
     2    10    11   ar
     3    11    12   ar
     4    12    13   ar
     5    13     4    1
     6     4     5   ar
     7     5     6   ar
     8     6     7   ar
     9     7     3    1
    10     3     1    1
    11     1    17    1
    12    17    18    1
    13    18    19    1
    14    19    20   ar
    15    20    21   ar
    16    21    22   ar
    17    22    23   ar
    18    23    24   ar
    19    24    25   ar
    20    25    26    1
    21    25    27   ar
    22    27    28   ar
    23     7     8   ar
    24    13    14   ar
    25    14    15   ar
    26    15    10   ar
    27     8     4   ar
    28    28    19   ar
    29    28    22    1
    30     9    16    1
    31     1     2    1
    32    23    29    1
@<TRIPOS>MOLECULE
*****
 29 32 0 0 0
SMALL
GASTEIGER

@<TRIPOS>ATOM
      1 N         137.3950  142.8072  162.9472 N.3     1  UNL1       -0.2908
      2 H         136.7776  142.7330  163.7557 H       1  UNL1        0.1237
      3 C         138.4231  141.7240  163.0865 C.3     1  UNL1        0.1341
      4 C         139.5555  140.9433  166.7160 C.ar    1  UNL1        0.1449
      5 C         138.9048  139.6479  166.3305 C.ar    1  UNL1        0.0403
      6 C         138.4015  139.7828  164.9239 C.ar    1  UNL1        0.0375
      7 C         138.7410  141.1614  164.4401 C.ar    1  UNL1        0.1388
      8 O         139.4543  141.8787  165.5477 O.2     1  UNL1       -0.4564
      9 O         142.1140  142.1681  172.0032 O.3     1  UNL1       -0.5055
     10 C         141.4744  141.8619  170.6814 C.ar    1  UNL1        0.1337
     11 C         140.5121  140.7176  170.5611 C.ar    1  UNL1        0.0367
     12 C         139.8725  140.4114  169.2393 C.ar    1  UNL1        0.0061
     13 C         140.1952  141.2495  168.0378 C.ar    1  UNL1        0.0347
     14 C         141.1575  142.3938  168.1582 C.ar    1  UNL1        0.0061
     15 C         141.7971  142.7000  169.4800 C.ar    1  UNL1        0.0367
     16 H         141.9124  141.6446  172.7537 H       1  UNL1        0.2922
     17 C         137.8241  144.2419  162.8604 C.3     1  UNL1        0.0737
     18 C         139.1032  144.6827  163.5085 C.3     1  UNL1        0.0451
     19 C         140.3966  144.5908  162.7544 C.ar    1  UNL1        0.0013
     20 C         140.6050  144.9536  161.3139 C.ar    1  UNL1        0.0963
     21 N         142.0458  144.7070  160.9776 N.ar    1  UNL1       -0.2273
     22 C         142.7279  144.1918  162.2102 C.ar    1  UNL1        0.1404
     23 N         144.1455  143.7788  162.4746 N.ar    1  UNL1       -0.3356
     24 C         144.5437  143.2940  163.8370 C.ar    1  UNL1        0.1035
     25 C         143.5244  143.2222  164.9351 C.ar    1  UNL1        0.1572
     26 F         143.9227  142.7374  166.2977 F       1  UNL1       -0.2026
     27 C         142.1069  143.6352  164.6708 C.ar    1  UNL1        0.0339
     28 C         141.7086  144.1200  163.3083 C.ar    1  UNL1        0.0338
     29 H         144.8145  143.8259  161.7539 H       1  UNL1        0.1675
@<TRIPOS>BOND
     1     9    10    1
     2    10    11   ar
     3    11    12   ar
     4    12    13   ar
     5    13     4    1
     6     4     5   ar
     7     5     6   ar
     8     6     7   ar
     9     7     3    1
    10     3     1    1
    11     1    17    1
    12    17    18    1
    13    18    19    1
    14    19    20   ar
    15    20    21   ar
    16    21    22   ar
    17    22    23   ar
    18    23    24   ar
    19    24    25   ar
    20    25    26    1
    21    25    27   ar
    22    27    28   ar
    23     7     8   ar
    24    13    14   ar
    25    14    15   ar
    26    15    10   ar
    27     8     4   ar
    28    28    19   ar
    29    28    22    1
    30     9    16    1
    31     1     2    1
    32    23    29    1
@<TRIPOS>MOLECULE
*****
 29 32 0 0 0
SMALL
GASTEIGER

@<TRIPOS>ATOM
      1 N         137.4070  141.2664  163.6434 N.3     1  UNL1       -0.2908
      2 H         137.5375  141.3857  162.6388 H       1  UNL1        0.1237
      3 C         137.9418  142.5046  164.2996 C.3     1  UNL1        0.1341
      4 C         140.9791  141.9537  166.6526 C.ar    1  UNL1        0.1449
      5 C         141.5807  142.8449  165.6067 C.ar    1  UNL1        0.0403
      6 C         140.5161  143.1597  164.5980 C.ar    1  UNL1        0.0375
      7 C         139.2566  142.4631  165.0204 C.ar    1  UNL1        0.1388
      8 O         139.5428  141.7177  166.2903 O.2     1  UNL1       -0.4564
      9 O         143.8197  139.7241  171.4443 O.3     1  UNL1       -0.5055
     10 C         143.1096  140.2814  170.2464 C.ar    1  UNL1        0.1337
     11 C         143.4551  141.6502  169.7393 C.ar    1  UNL1        0.0367
     12 C         142.7450  142.2075  168.5414 C.ar    1  UNL1        0.0061
     13 C         141.6893  141.3962  167.8506 C.ar    1  UNL1        0.0347
     14 C         141.3437  140.0275  168.3577 C.ar    1  UNL1        0.0061
     15 C         142.0538  139.4701  169.5556 C.ar    1  UNL1        0.0367
     16 H         144.4792  140.2309  171.8758 H       1  UNL1        0.2922
     17 C         137.9760  139.9245  163.9976 C.3     1  UNL1        0.0737
     18 C         138.9351  139.2464  163.0645 C.3     1  UNL1        0.0451
     19 C         140.2666  139.8724  162.7726 C.ar    1  UNL1        0.0013
     20 C         140.5718  140.8078  161.6404 C.ar    1  UNL1        0.0963
     21 N         142.0205  141.1863  161.7297 N.ar    1  UNL1       -0.2273
     22 C         142.6106  140.4849  162.9170 C.ar    1  UNL1        0.1404
     23 N         143.9950  140.4807  163.4945 N.ar    1  UNL1       -0.3356
     24 C         144.2953  139.6644  164.7166 C.ar    1  UNL1        0.1035
     25 C         143.2112  138.8523  165.3611 C.ar    1  UNL1        0.1572
     26 F         143.5116  138.0360  166.5832 F       1  UNL1       -0.2026
     27 C         141.8269  138.8565  164.7836 C.ar    1  UNL1        0.0339
     28 C         141.5266  139.6728  163.5616 C.ar    1  UNL1        0.0338
     29 H         144.7064  141.0137  163.0715 H       1  UNL1        0.1675
@<TRIPOS>BOND
     1     9    10    1
     2    10    11   ar
     3    11    12   ar
     4    12    13   ar
     5    13     4    1
     6     4     5   ar
     7     5     6   ar
     8     6     7   ar
     9     7     3    1
    10     3     1    1
    11     1    17    1
    12    17    18    1
    13    18    19    1
    14    19    20   ar
    15    20    21   ar
    16    21    22   ar
    17    22    23   ar
    18    23    24   ar
    19    24    25   ar
    20    25    26    1
    21    25    27   ar
    22    27    28   ar
    23     7     8   ar
    24    13    14   ar
    25    14    15   ar
    26    15    10   ar
    27     8     4   ar
    28    28    19   ar
    29    28    22    1
    30     9    16    1
    31     1     2    1
    32    23    29    1
