@<TRIPOS>MOLECULE
*****
 33 36 0 0 0
SMALL
GASTEIGER

@<TRIPOS>ATOM
      1 C         141.6221  141.9471  164.3671 C.ar    1  UNL1        0.1345
      2 C         142.3351  140.7941  165.0093 C.ar    1  UNL1        0.0346
      3 C         143.8166  140.6372  164.8344 C.ar    1  UNL1        0.0142
      4 C         144.5850  141.6332  164.0174 C.ar    1  UNL1        0.0847
      5 CL        146.0665  141.4762  163.8424 Cl      1  UNL1       -0.0799
      6 C         143.8720  142.7861  163.3753 C.ar    1  UNL1        0.1495
      7 F         144.6404  143.7821  162.5583 F       1  UNL1       -0.2035
      8 C         142.3905  142.9431  163.5501 C.ar    1  UNL1        0.0416
      9 C         141.6774  144.0960  162.9081 C.3     1  UNL1        0.0562
     10 C         141.5277  145.4722  163.4858 C.3     1  UNL1        0.0943
     11 N         140.7466  146.3019  162.5104 N.am    1  UNL1       -0.3040
     12 C         140.4136  145.4386  161.3298 C.2     1  UNL1        0.2229
     13 O         139.6410  145.8639  160.1165 O.2     1  UNL1       -0.2751
     14 C         140.9889  144.0753  161.5756 C.3     1  UNL1        0.0913
     15 H         140.4965  147.2472  162.6249 H       1  UNL1        0.1494
     16 C         141.5666  139.7981  165.8262 C.3     1  UNL1        0.1319
     17 C         141.3325  138.4145  165.2962 C.3     1  UNL1        0.0314
     18 N         141.0323  140.1857  167.1732 N.ar    1  UNL1       -0.2319
     19 N         139.7039  139.7850  167.7433 N.ar    1  UNL1       -0.1720
     20 C         139.5831  140.3936  169.1090 C.ar    1  UNL1        0.0846
     21 C         138.4139  140.2506  170.0377 C.3     1  UNL1        0.0541
     22 C         140.8368  141.1703  169.3828 C.ar    1  UNL1        0.0819
     23 C         141.2785  141.9781  170.5671 C.ar    1  UNL1        0.1312
     24 N         140.3828  142.1066  171.7635 N.pl3   1  UNL1       -0.3425
     25 N         142.6159  142.6573  170.5549 N.ar    1  UNL1       -0.2093
     26 C         143.5115  142.5288  169.3586 C.ar    1  UNL1        0.2014
     27 N         143.0698  141.7211  168.1744 N.ar    1  UNL1       -0.2050
     28 C         141.7324  141.0418  168.1865 C.ar    1  UNL1        0.1652
     29 H         139.5051  141.6608  171.7715 H       1  UNL1        0.1437
     30 H         140.6728  142.6367  172.5408 H       1  UNL1        0.1437
     31 O         140.1406  142.1040  164.5421 O.3     1  UNL1       -0.4760
     32 C         138.6699  144.1514  165.1710 C.3     1  UNL1        0.0512
     33 C         139.6033  143.0491  165.5756 C.3     1  UNL1        0.2055
@<TRIPOS>BOND
     1    32    33    1
     2    33    31    1
     3    31     1    1
     4     1     2   ar
     5     2    16    1
     6    16    17    1
     7    16    18    1
     8    18    19   ar
     9    19    20   ar
    10    20    21    1
    11    20    22   ar
    12    22    23   ar
    13    23    24    1
    14    23    25   ar
    15    25    26   ar
    16    26    27   ar
    17    27    28   ar
    18     2     3   ar
    19     3     4   ar
    20     4     5    1
    21     4     6   ar
    22     6     7    1
    23     6     8   ar
    24     9     8    1
    25     9    10    1
    26    10    11    1
    27    11    12   am
    28    12    13    2
    29    12    14    1
    30     8     1   ar
    31    14     9    1
    32    28    18   ar
    33    28    22   ar
    34    24    29    1
    35    24    30    1
    36    11    15    1
@<TRIPOS>MOLECULE
*****
 33 36 0 0 0
SMALL
GASTEIGER

@<TRIPOS>ATOM
      1 C         141.5436  142.2393  163.8410 C.ar    1  UNL1        0.1345
      2 C         142.3138  141.4705  164.8735 C.ar    1  UNL1        0.0346
      3 C         143.5002  142.0968  165.5444 C.ar    1  UNL1        0.0142
      4 C         143.9163  143.4919  165.1830 C.ar    1  UNL1        0.0847
      5 CL        145.1027  144.1182  165.8540 Cl      1  UNL1       -0.0799
      6 C         143.1462  144.2606  164.1506 C.ar    1  UNL1        0.1495
      7 F         143.5624  145.6557  163.7892 F       1  UNL1       -0.2035
      8 C         141.9598  143.6343  163.4796 C.ar    1  UNL1        0.0416
      9 C         141.1896  144.4030  162.4472 C.3     1  UNL1        0.0562
     10 C         140.0765  145.3715  162.7177 C.3     1  UNL1        0.0943
     11 N         139.5963  145.9052  161.4007 N.am    1  UNL1       -0.3040
     12 C         140.4124  145.2667  160.3163 C.2     1  UNL1        0.2229
     13 O         140.2691  145.5132  158.8437 O.2     1  UNL1       -0.2751
     14 C         141.3972  144.3382  160.9630 C.3     1  UNL1        0.0913
     15 H         138.8724  146.5597  161.2709 H       1  UNL1        0.1494
     16 C         141.8976  140.0755  165.2348 C.3     1  UNL1        0.1319
     17 C         142.5891  138.9007  164.6089 C.3     1  UNL1        0.0314
     18 N         140.7899  139.8552  166.2221 N.ar    1  UNL1       -0.2319
     19 N         139.5329  139.0742  165.9770 N.ar    1  UNL1       -0.1720
     20 C         138.7110  139.1135  167.2312 C.ar    1  UNL1        0.0846
     21 C         137.3746  138.4620  167.4303 C.3     1  UNL1        0.0541
     22 C         139.4600  139.9188  168.2512 C.ar    1  UNL1        0.0819
     23 C         139.1380  140.2939  169.6674 C.ar    1  UNL1        0.1312
     24 N         137.8531  139.8355  170.2911 N.pl3   1  UNL1       -0.3425
     25 N         140.1010  141.1274  170.4599 N.ar    1  UNL1       -0.2093
     26 C         141.3859  141.5858  169.8363 C.ar    1  UNL1        0.2014
     27 N         141.7078  141.2107  168.4201 N.ar    1  UNL1       -0.2050
     28 C         140.7449  140.3772  167.6276 C.ar    1  UNL1        0.1652
     29 H         137.2211  139.2885  169.7710 H       1  UNL1        0.1437
     30 H         137.6418  140.0817  171.2206 H       1  UNL1        0.1437
     31 O         140.3573  141.6129  163.1700 O.3     1  UNL1       -0.4760
     32 C         138.7964  142.6257  164.9834 C.3     1  UNL1        0.0512
     33 C         138.9818  141.8207  163.7313 C.3     1  UNL1        0.2055
@<TRIPOS>BOND
     1    32    33    1
     2    33    31    1
     3    31     1    1
     4     1     2   ar
     5     2    16    1
     6    16    17    1
     7    16    18    1
     8    18    19   ar
     9    19    20   ar
    10    20    21    1
    11    20    22   ar
    12    22    23   ar
    13    23    24    1
    14    23    25   ar
    15    25    26   ar
    16    26    27   ar
    17    27    28   ar
    18     2     3   ar
    19     3     4   ar
    20     4     5    1
    21     4     6   ar
    22     6     7    1
    23     6     8   ar
    24     9     8    1
    25     9    10    1
    26    10    11    1
    27    11    12   am
    28    12    13    2
    29    12    14    1
    30     8     1   ar
    31    14     9    1
    32    28    18   ar
    33    28    22   ar
    34    24    29    1
    35    24    30    1
    36    11    15    1
@<TRIPOS>MOLECULE
*****
 33 36 0 0 0
SMALL
GASTEIGER

@<TRIPOS>ATOM
      1 C         141.0248  140.4085  166.1336 C.ar    1  UNL1        0.1345
      2 C         140.0945  139.7783  165.1398 C.ar    1  UNL1        0.0346
      3 C         138.8144  139.1497  165.6048 C.ar    1  UNL1        0.0142
      4 C         138.4646  139.1512  167.0634 C.ar    1  UNL1        0.0847
      5 CL        137.1845  138.5225  167.5283 Cl      1  UNL1       -0.0799
      6 C         139.3949  139.7813  168.0571 C.ar    1  UNL1        0.1495
      7 F         139.0451  139.7827  169.5158 F       1  UNL1       -0.2035
      8 C         140.6750  140.4099  167.5923 C.ar    1  UNL1        0.0416
      9 C         141.6053  141.0401  168.5860 C.3     1  UNL1        0.0562
     10 C         142.7724  140.3704  169.2488 C.3     1  UNL1        0.0943
     11 N         143.4203  141.3669  170.1637 N.am    1  UNL1       -0.3040
     12 C         142.6536  142.6525  170.0664 C.2     1  UNL1        0.2229
     13 O         142.9556  143.9179  170.8131 O.2     1  UNL1       -0.2751
     14 C         141.5319  142.4505  169.0913 C.3     1  UNL1        0.0913
     15 H         144.2100  141.2055  170.7289 H       1  UNL1        0.1494
     16 C         140.4443  139.7769  163.6812 C.3     1  UNL1        0.1319
     17 C         140.4714  138.4859  162.9178 C.3     1  UNL1        0.0314
     18 N         140.7671  141.0663  162.9860 N.ar    1  UNL1       -0.2319
     19 N         142.0532  141.3929  162.2867 N.ar    1  UNL1       -0.1720
     20 C         141.9414  142.7839  161.7365 C.ar    1  UNL1        0.0846
     21 C         142.9991  143.5138  160.9629 C.3     1  UNL1        0.0541
     22 C         140.5861  143.3169  162.0959 C.ar    1  UNL1        0.0819
     23 C         139.9191  144.6317  161.8196 C.ar    1  UNL1        0.1312
     24 N         140.6448  145.6933  161.0474 N.pl3   1  UNL1       -0.3425
     25 N         138.5263  144.8850  162.3156 N.ar    1  UNL1       -0.2093
     26 C         137.8005  143.8234  163.0879 C.ar    1  UNL1        0.2014
     27 N         138.4675  142.5086  163.3641 N.ar    1  UNL1       -0.2050
     28 C         139.8603  142.2553  162.8681 C.ar    1  UNL1        0.1652
     29 H         141.5590  145.5271  160.7218 H       1  UNL1        0.1437
     30 H         140.2070  146.5563  160.8661 H       1  UNL1        0.1437
     31 O         142.3049  141.0371  165.6687 O.3     1  UNL1       -0.4760
     32 C         143.5347  138.7610  165.9069 C.3     1  UNL1        0.0512
     33 C         143.5180  140.1857  165.4379 C.3     1  UNL1        0.2055
@<TRIPOS>BOND
     1    32    33    1
     2    33    31    1
     3    31     1    1
     4     1     2   ar
     5     2    16    1
     6    16    17    1
     7    16    18    1
     8    18    19   ar
     9    19    20   ar
    10    20    21    1
    11    20    22   ar
    12    22    23   ar
    13    23    24    1
    14    23    25   ar
    15    25    26   ar
    16    26    27   ar
    17    27    28   ar
    18     2     3   ar
    19     3     4   ar
    20     4     5    1
    21     4     6   ar
    22     6     7    1
    23     6     8   ar
    24     9     8    1
    25     9    10    1
    26    10    11    1
    27    11    12   am
    28    12    13    2
    29    12    14    1
    30     8     1   ar
    31    14     9    1
    32    28    18   ar
    33    28    22   ar
    34    24    29    1
    35    24    30    1
    36    11    15    1
@<TRIPOS>MOLECULE
*****
 33 36 0 0 0
SMALL
GASTEIGER

@<TRIPOS>ATOM
      1 C         140.8673  140.0582  165.9718 C.ar    1  UNL1        0.1345
      2 C         141.5675  139.2826  164.8955 C.ar    1  UNL1        0.0346
      3 C         142.7842  138.4704  165.2273 C.ar    1  UNL1        0.0142
      4 C         143.3006  138.4338  166.6351 C.ar    1  UNL1        0.0847
      5 CL        144.5172  137.6215  166.9668 Cl      1  UNL1       -0.0799
      6 C         142.6003  139.2092  167.7113 C.ar    1  UNL1        0.1495
      7 F         143.1167  139.1726  169.1191 F       1  UNL1       -0.2035
      8 C         141.3836  140.0215  167.3796 C.ar    1  UNL1        0.0416
      9 C         140.6833  140.7970  168.4558 C.3     1  UNL1        0.0562
     10 C         139.6538  140.2572  169.4038 C.3     1  UNL1        0.0943
     11 N         139.2238  141.3750  170.3067 N.am    1  UNL1       -0.3040
     12 C         139.9874  142.6058  169.9168 C.2     1  UNL1        0.2229
     13 O         139.8696  143.9566  170.5582 O.2     1  UNL1       -0.2751
     14 C         140.8894  142.2486  168.7728 C.3     1  UNL1        0.0913
     15 H         138.5573  141.3120  171.0286 H       1  UNL1        0.1494
     16 C         141.0512  139.3194  163.4878 C.3     1  UNL1        0.1319
     17 C         140.6325  138.0488  162.8091 C.3     1  UNL1        0.0314
     18 N         140.9534  140.6265  162.7586 N.ar    1  UNL1       -0.2319
     19 N         139.7548  141.1318  162.0114 N.ar    1  UNL1       -0.1720
     20 C         140.0976  142.4754  161.4395 C.ar    1  UNL1        0.0846
     21 C         139.1895  143.3418  160.6182 C.3     1  UNL1        0.0541
     22 C         141.5081  142.8006  161.8332 C.ar    1  UNL1        0.0819
     23 C         142.3791  143.9895  161.5548 C.ar    1  UNL1        0.1312
     24 N         141.8503  145.1323  160.7395 N.pl3   1  UNL1       -0.3425
     25 N         143.7791  144.0358  162.0915 N.ar    1  UNL1       -0.2093
     26 C         144.3080  142.8932  162.9067 C.ar    1  UNL1        0.2014
     27 N         143.4369  141.7042  163.1852 N.ar    1  UNL1       -0.2050
     28 C         142.0370  141.6579  162.6484 C.ar    1  UNL1        0.1652
     29 H         140.9314  145.1019  160.3873 H       1  UNL1        0.1437
     30 H         142.4220  145.9127  160.5567 H       1  UNL1        0.1437
     31 O         139.6506  140.8704  165.6401 O.3     1  UNL1       -0.4760
     32 C         138.0900  138.8712  166.2038 C.3     1  UNL1        0.0512
     33 C         138.3061  140.2098  165.5623 C.3     1  UNL1        0.2055
@<TRIPOS>BOND
     1    32    33    1
     2    33    31    1
     3    31     1    1
     4     1     2   ar
     5     2    16    1
     6    16    17    1
     7    16    18    1
     8    18    19   ar
     9    19    20   ar
    10    20    21    1
    11    20    22   ar
    12    22    23   ar
    13    23    24    1
    14    23    25   ar
    15    25    26   ar
    16    26    27   ar
    17    27    28   ar
    18     2     3   ar
    19     3     4   ar
    20     4     5    1
    21     4     6   ar
    22     6     7    1
    23     6     8   ar
    24     9     8    1
    25     9    10    1
    26    10    11    1
    27    11    12   am
    28    12    13    2
    29    12    14    1
    30     8     1   ar
    31    14     9    1
    32    28    18   ar
    33    28    22   ar
    34    24    29    1
    35    24    30    1
    36    11    15    1
@<TRIPOS>MOLECULE
*****
 33 36 0 0 0
SMALL
GASTEIGER

@<TRIPOS>ATOM
      1 C         140.8780  140.2242  165.9286 C.ar    1  UNL1        0.1345
      2 C         141.5880  139.4976  164.8249 C.ar    1  UNL1        0.0346
      3 C         142.7661  138.6238  165.1388 C.ar    1  UNL1        0.0142
      4 C         143.2343  138.4766  166.5562 C.ar    1  UNL1        0.0847
      5 CL        144.4124  137.6028  166.8701 Cl      1  UNL1       -0.0799
      6 C         142.5244  139.2032  167.6599 C.ar    1  UNL1        0.1495
      7 F         142.9925  139.0560  169.0773 F       1  UNL1       -0.2035
      8 C         141.3462  140.0770  167.3461 C.ar    1  UNL1        0.0416
      9 C         140.6362  140.8037  168.4496 C.3     1  UNL1        0.0562
     10 C         139.6162  140.2155  169.3790 C.3     1  UNL1        0.0943
     11 N         139.1712  141.2943  170.3213 N.am    1  UNL1       -0.3040
     12 C         139.9161  142.5492  169.9744 C.2     1  UNL1        0.2229
     13 O         139.7795  143.8746  170.6633 O.2     1  UNL1       -0.2751
     14 C         140.8215  142.2459  168.8176 C.3     1  UNL1        0.0913
     15 H         138.5068  141.1960  171.0412 H       1  UNL1        0.1494
     16 C         141.1198  139.6448  163.4076 C.3     1  UNL1        0.1319
     17 C         140.2131  138.6121  162.8061 C.3     1  UNL1        0.0314
     18 N         141.5582  140.8245  162.5915 N.ar    1  UNL1       -0.2319
     19 N         142.9218  141.0308  162.0016 N.ar    1  UNL1       -0.1720
     20 C         142.9164  142.3389  161.2676 C.ar    1  UNL1        0.0846
     21 C         144.0745  142.9394  160.5273 C.3     1  UNL1        0.0541
     22 C         141.5493  142.9411  161.4039 C.ar    1  UNL1        0.0819
     23 C         140.9604  144.2208  160.8886 C.ar    1  UNL1        0.1312
     24 N         141.7998  145.1568  160.0704 N.pl3   1  UNL1       -0.3425
     25 N         139.5321  144.5646  161.1916 N.ar    1  UNL1       -0.2093
     26 C         138.6927  143.6287  162.0098 C.ar    1  UNL1        0.2014
     27 N         139.2816  142.3490  162.5251 N.ar    1  UNL1       -0.2050
     28 C         140.7099  142.0052  162.2221 C.ar    1  UNL1        0.1652
     29 H         142.7373  144.9312  159.8715 H       1  UNL1        0.1437
     30 H         141.4133  145.9967  159.7322 H       1  UNL1        0.1437
     31 O         139.6999  141.0980  165.6148 O.3     1  UNL1       -0.4760
     32 C         138.0348  139.1594  166.0832 C.3     1  UNL1        0.0512
     33 C         138.3358  140.4924  165.4647 C.3     1  UNL1        0.2055
@<TRIPOS>BOND
     1    32    33    1
     2    33    31    1
     3    31     1    1
     4     1     2   ar
     5     2    16    1
     6    16    17    1
     7    16    18    1
     8    18    19   ar
     9    19    20   ar
    10    20    21    1
    11    20    22   ar
    12    22    23   ar
    13    23    24    1
    14    23    25   ar
    15    25    26   ar
    16    26    27   ar
    17    27    28   ar
    18     2     3   ar
    19     3     4   ar
    20     4     5    1
    21     4     6   ar
    22     6     7    1
    23     6     8   ar
    24     9     8    1
    25     9    10    1
    26    10    11    1
    27    11    12   am
    28    12    13    2
    29    12    14    1
    30     8     1   ar
    31    14     9    1
    32    28    18   ar
    33    28    22   ar
    34    24    29    1
    35    24    30    1
    36    11    15    1
@<TRIPOS>MOLECULE
*****
 33 36 0 0 0
SMALL
GASTEIGER

@<TRIPOS>ATOM
      1 C         139.9652  142.0299  165.8778 C.ar    1  UNL1        0.1345
      2 C         139.0495  141.3952  164.8734 C.ar    1  UNL1        0.0346
      3 C         138.3107  140.1372  165.2220 C.ar    1  UNL1        0.0142
      4 C         138.4875  139.5140  166.5749 C.ar    1  UNL1        0.0847
      5 CL        137.7486  138.2559  166.9235 Cl      1  UNL1       -0.0799
      6 C         139.4031  140.1486  167.5792 C.ar    1  UNL1        0.1495
      7 F         139.5799  139.5254  168.9321 F       1  UNL1       -0.2035
      8 C         140.1420  141.4067  167.2307 C.ar    1  UNL1        0.0416
      9 C         141.0577  142.0415  168.2350 C.3     1  UNL1        0.0562
     10 C         140.6514  142.9940  169.3201 C.3     1  UNL1        0.0943
     11 N         141.8830  143.3764  170.0862 N.am    1  UNL1       -0.3040
     12 C         143.0504  142.6602  169.4746 C.2     1  UNL1        0.2229
     13 O         144.4774  142.7528  169.9275 O.2     1  UNL1       -0.2751
     14 C         142.5404  141.8352  168.3304 C.3     1  UNL1        0.0913
     15 H         141.9188  143.9898  170.8554 H       1  UNL1        0.1494
     16 C         138.8727  142.0185  163.5206 C.3     1  UNL1        0.1319
     17 C         137.5466  142.6012  163.1308 C.3     1  UNL1        0.0314
     18 N         140.0220  142.0591  162.5575 N.ar    1  UNL1       -0.2319
     19 N         140.9940  140.9466  162.2973 N.ar    1  UNL1       -0.1720
     20 C         141.9737  141.4193  161.2645 C.ar    1  UNL1        0.0846
     21 C         143.1189  140.6266  160.7075 C.3     1  UNL1        0.0541
     22 C         141.6073  142.8238  160.8864 C.ar    1  UNL1        0.0819
     23 C         142.2161  143.7938  159.9178 C.ar    1  UNL1        0.1312
     24 N         143.4224  143.3984  159.1186 N.pl3   1  UNL1       -0.3425
     25 N         141.6188  145.1593  159.7482 N.ar    1  UNL1       -0.2093
     26 C         140.4125  145.5547  160.5473 C.ar    1  UNL1        0.2014
     27 N         139.8037  144.5847  161.5160 N.ar    1  UNL1       -0.2050
     28 C         140.4010  143.2193  161.6855 C.ar    1  UNL1        0.1652
     29 H         143.8145  142.5022  159.2298 H       1  UNL1        0.1437
     30 H         143.8220  144.0351  158.4828 H       1  UNL1        0.1437
     31 O         140.7041  143.2879  165.5292 O.3     1  UNL1       -0.4760
     32 C         142.6640  144.3548  164.1986 C.3     1  UNL1        0.0512
     33 C         142.1023  143.2120  164.9914 C.3     1  UNL1        0.2055
@<TRIPOS>BOND
     1    32    33    1
     2    33    31    1
     3    31     1    1
     4     1     2   ar
     5     2    16    1
     6    16    17    1
     7    16    18    1
     8    18    19   ar
     9    19    20   ar
    10    20    21    1
    11    20    22   ar
    12    22    23   ar
    13    23    24    1
    14    23    25   ar
    15    25    26   ar
    16    26    27   ar
    17    27    28   ar
    18     2     3   ar
    19     3     4   ar
    20     4     5    1
    21     4     6   ar
    22     6     7    1
    23     6     8   ar
    24     9     8    1
    25     9    10    1
    26    10    11    1
    27    11    12   am
    28    12    13    2
    29    12    14    1
    30     8     1   ar
    31    14     9    1
    32    28    18   ar
    33    28    22   ar
    34    24    29    1
    35    24    30    1
    36    11    15    1
@<TRIPOS>MOLECULE
*****
 33 36 0 0 0
SMALL
GASTEIGER

@<TRIPOS>ATOM
      1 C         141.1086  140.7075  166.1283 C.ar    1  UNL1        0.1345
      2 C         140.1867  140.1167  165.1031 C.ar    1  UNL1        0.0346
      3 C         138.9432  139.3992  165.5375 C.ar    1  UNL1        0.0142
      4 C         138.6216  139.2725  166.9971 C.ar    1  UNL1        0.0847
      5 CL        137.3780  138.5549  167.4316 Cl      1  UNL1       -0.0799
      6 C         139.5434  139.8632  168.0223 C.ar    1  UNL1        0.1495
      7 F         139.2218  139.7365  169.4820 F       1  UNL1       -0.2035
      8 C         140.7870  140.5808  167.5880 C.ar    1  UNL1        0.0416
      9 C         141.7090  141.1716  168.6131 C.3     1  UNL1        0.0562
     10 C         142.8282  140.4556  169.3092 C.3     1  UNL1        0.0943
     11 N         143.4845  141.4236  170.2485 N.am    1  UNL1       -0.3040
     12 C         142.7710  142.7379  170.1328 C.2     1  UNL1        0.2229
     13 O         143.0974  143.9884  170.8942 O.2     1  UNL1       -0.2751
     14 C         141.6736  142.5822  169.1221 C.3     1  UNL1        0.0913
     15 H         144.2493  141.2303  170.8374 H       1  UNL1        0.1494
     16 C         140.5084  140.2434  163.6435 C.3     1  UNL1        0.1319
     17 C         140.8161  139.0184  162.8342 C.3     1  UNL1        0.0314
     18 N         140.5224  141.5950  162.9931 N.ar    1  UNL1       -0.2319
     19 N         139.5726  142.7204  163.2781 N.ar    1  UNL1       -0.1720
     20 C         139.9518  143.8794  162.4047 C.ar    1  UNL1        0.0846
     21 C         139.2671  145.2134  162.3633 C.3     1  UNL1        0.0541
     22 C         141.1360  143.4703  161.5800 C.ar    1  UNL1        0.0819
     23 C         141.9388  144.2010  160.5448 C.ar    1  UNL1        0.1312
     24 N         141.5862  145.6129  160.1811 N.pl3   1  UNL1       -0.3425
     25 N         143.0943  143.5198  159.8733 N.ar    1  UNL1       -0.2093
     26 C         143.4470  142.1079  160.2369 C.ar    1  UNL1        0.2014
     27 N         142.6442  141.3772  161.2721 N.ar    1  UNL1       -0.2050
     28 C         141.4887  142.0584  161.9436 C.ar    1  UNL1        0.1652
     29 H         140.8279  146.0600  160.6218 H       1  UNL1        0.1437
     30 H         142.1131  146.0925  159.5016 H       1  UNL1        0.1437
     31 O         142.3522  141.4250  165.6939 O.3     1  UNL1       -0.4760
     32 C         143.6112  139.1643  165.4617 C.3     1  UNL1        0.0512
     33 C         143.6309  140.6635  165.5067 C.3     1  UNL1        0.2055
@<TRIPOS>BOND
     1    32    33    1
     2    33    31    1
     3    31     1    1
     4     1     2   ar
     5     2    16    1
     6    16    17    1
     7    16    18    1
     8    18    19   ar
     9    19    20   ar
    10    20    21    1
    11    20    22   ar
    12    22    23   ar
    13    23    24    1
    14    23    25   ar
    15    25    26   ar
    16    26    27   ar
    17    27    28   ar
    18     2     3   ar
    19     3     4   ar
    20     4     5    1
    21     4     6   ar
    22     6     7    1
    23     6     8   ar
    24     9     8    1
    25     9    10    1
    26    10    11    1
    27    11    12   am
    28    12    13    2
    29    12    14    1
    30     8     1   ar
    31    14     9    1
    32    28    18   ar
    33    28    22   ar
    34    24    29    1
    35    24    30    1
    36    11    15    1
@<TRIPOS>MOLECULE
*****
 33 36 0 0 0
SMALL
GASTEIGER

@<TRIPOS>ATOM
      1 C         142.0880  141.5521  166.1086 C.ar    1  UNL1        0.1345
      2 C         142.6253  140.7407  164.9670 C.ar    1  UNL1        0.0346
      3 C         143.2446  139.3994  165.2264 C.ar    1  UNL1        0.0142
      4 C         143.3268  138.8696  166.6273 C.ar    1  UNL1        0.0847
      5 CL        143.9461  137.5283  166.8868 Cl      1  UNL1       -0.0799
      6 C         142.7896  139.6810  167.7688 C.ar    1  UNL1        0.1495
      7 F         142.8717  139.1512  169.1697 F       1  UNL1       -0.2035
      8 C         142.1702  141.0223  167.5094 C.ar    1  UNL1        0.0416
      9 C         141.6330  141.8338  168.6509 C.3     1  UNL1        0.0562
     10 C         142.4126  142.8070  169.4845 C.3     1  UNL1        0.0943
     11 N         141.4833  143.3892  170.5079 N.am    1  UNL1       -0.3040
     12 C         140.1293  142.7759  170.3068 C.2     1  UNL1        0.2229
     13 O         138.8989  143.0719  171.1120 O.2     1  UNL1       -0.2751
     14 C         140.2218  141.8145  169.1591 C.3     1  UNL1        0.0913
     15 H         141.7204  144.0567  171.1916 H       1  UNL1        0.1494
     16 C         142.5431  141.2706  163.5662 C.3     1  UNL1        0.1319
     17 C         143.7502  141.8906  162.9269 C.3     1  UNL1        0.0314
     18 N         141.2539  141.1805  162.8046 N.ar    1  UNL1       -0.2319
     19 N         140.6364  142.2739  161.9842 N.ar    1  UNL1       -0.1720
     20 C         139.3568  141.7504  161.4022 C.ar    1  UNL1        0.0846
     21 C         138.4157  142.5104  160.5152 C.3     1  UNL1        0.0541
     22 C         139.1836  140.3335  161.8630 C.ar    1  UNL1        0.0819
     23 C         138.1097  139.3184  161.6053 C.ar    1  UNL1        0.1312
     24 N         136.9371  139.6706  160.7386 N.pl3   1  UNL1       -0.3425
     25 N         138.2083  137.9512  162.2144 N.ar    1  UNL1       -0.2093
     26 C         139.3808  137.5990  163.0811 C.ar    1  UNL1        0.2014
     27 N         140.4547  138.6140  163.3387 N.ar    1  UNL1       -0.2050
     28 C         140.3561  139.9812  162.7297 C.ar    1  UNL1        0.1652
     29 H         136.8724  140.5680  160.3388 H       1  UNL1        0.1437
     30 H         136.2323  139.0044  160.5694 H       1  UNL1        0.1437
     31 O         141.4687  142.8934  165.8491 O.3     1  UNL1       -0.4760
     32 C         139.2969  144.3119  165.7030 C.3     1  UNL1        0.0512
     33 C         140.0026  142.9972  165.5494 C.3     1  UNL1        0.2055
@<TRIPOS>BOND
     1    32    33    1
     2    33    31    1
     3    31     1    1
     4     1     2   ar
     5     2    16    1
     6    16    17    1
     7    16    18    1
     8    18    19   ar
     9    19    20   ar
    10    20    21    1
    11    20    22   ar
    12    22    23   ar
    13    23    24    1
    14    23    25   ar
    15    25    26   ar
    16    26    27   ar
    17    27    28   ar
    18     2     3   ar
    19     3     4   ar
    20     4     5    1
    21     4     6   ar
    22     6     7    1
    23     6     8   ar
    24     9     8    1
    25     9    10    1
    26    10    11    1
    27    11    12   am
    28    12    13    2
    29    12    14    1
    30     8     1   ar
    31    14     9    1
    32    28    18   ar
    33    28    22   ar
    34    24    29    1
    35    24    30    1
    36    11    15    1
@<TRIPOS>MOLECULE
*****
 33 36 0 0 0
SMALL
GASTEIGER

@<TRIPOS>ATOM
      1 C         141.5508  141.2963  164.3357 C.ar    1  UNL1        0.1345
      2 C         141.5151  139.9009  164.8850 C.ar    1  UNL1        0.0346
      3 C         140.8972  138.7945  164.0824 C.ar    1  UNL1        0.0142
      4 C         140.3151  139.0836  162.7305 C.ar    1  UNL1        0.0847
      5 CL        139.6972  137.9773  161.9278 Cl      1  UNL1       -0.0799
      6 C         140.3508  140.4789  162.1812 C.ar    1  UNL1        0.1495
      7 F         139.7687  140.7679  160.8293 F       1  UNL1       -0.2035
      8 C         140.9687  141.5853  162.9838 C.ar    1  UNL1        0.0416
      9 C         141.0044  142.9807  162.4346 C.3     1  UNL1        0.0562
     10 C         142.2149  143.6870  161.9000 C.3     1  UNL1        0.0943
     11 N         141.7947  145.0575  161.4585 N.am    1  UNL1       -0.3040
     12 C         140.3244  145.1983  161.7203 C.2     1  UNL1        0.2229
     13 O         139.4892  146.4100  161.4299 O.2     1  UNL1       -0.2751
     14 C         139.8361  143.9147  162.3236 C.3     1  UNL1        0.0913
     15 H         142.3809  145.7441  161.0659 H       1  UNL1        0.1494
     16 C         142.0972  139.6119  166.2368 C.3     1  UNL1        0.1319
     17 C         143.3799  138.8427  166.3522 C.3     1  UNL1        0.0314
     18 N         141.3968  140.0921  167.4733 N.ar    1  UNL1       -0.2319
     19 N         140.0145  139.7064  167.9096 N.ar    1  UNL1       -0.1720
     20 C         139.7191  140.4182  169.1965 C.ar    1  UNL1        0.0846
     21 C         138.4472  140.3214  169.9859 C.3     1  UNL1        0.0541
     22 C         140.9189  141.2438  169.5555 C.ar    1  UNL1        0.0819
     23 C         141.2012  142.1530  170.7146 C.ar    1  UNL1        0.1312
     24 N         140.1643  142.3546  171.7797 N.pl3   1  UNL1       -0.3425
     25 N         142.5204  142.8608  170.8087 N.ar    1  UNL1       -0.2093
     26 C         143.5573  142.6592  169.7437 C.ar    1  UNL1        0.2014
     27 N         143.2750  141.7500  168.5846 N.ar    1  UNL1       -0.2050
     28 C         141.9558  141.0423  168.4905 C.ar    1  UNL1        0.1652
     29 H         139.2984  141.8901  171.7180 H       1  UNL1        0.1437
     30 H         140.3496  142.9513  172.5405 H       1  UNL1        0.1437
     31 O         142.1687  142.4026  165.1383 O.3     1  UNL1       -0.4760
     32 C         144.5162  141.8650  164.1637 C.3     1  UNL1        0.0512
     33 C         143.6605  142.5510  165.1870 C.3     1  UNL1        0.2055
@<TRIPOS>BOND
     1    32    33    1
     2    33    31    1
     3    31     1    1
     4     1     2   ar
     5     2    16    1
     6    16    17    1
     7    16    18    1
     8    18    19   ar
     9    19    20   ar
    10    20    21    1
    11    20    22   ar
    12    22    23   ar
    13    23    24    1
    14    23    25   ar
    15    25    26   ar
    16    26    27   ar
    17    27    28   ar
    18     2     3   ar
    19     3     4   ar
    20     4     5    1
    21     4     6   ar
    22     6     7    1
    23     6     8   ar
    24     9     8    1
    25     9    10    1
    26    10    11    1
    27    11    12   am
    28    12    13    2
    29    12    14    1
    30     8     1   ar
    31    14     9    1
    32    28    18   ar
    33    28    22   ar
    34    24    29    1
    35    24    30    1
    36    11    15    1
