@<TRIPOS>MOLECULE
*****
 35 38 0 0 0
SMALL
GASTEIGER

@<TRIPOS>ATOM
      1 C         140.2026  140.6238  169.9589 C.ar    1  UNL1        0.1873
      2 N         138.8867  139.9471  170.2046 N.ar    1  UNL1       -0.1378
      3 N         138.1103  139.3768  169.0548 N.ar    1  UNL1       -0.1124
      4 C         138.6498  139.4833  167.6593 C.ar    1  UNL1        0.2373
      5 N         139.9657  140.1600  167.4136 N.ar    1  UNL1       -0.1958
      6 C         140.7421  140.7303  168.5633 C.ar    1  UNL1        0.1591
      7 N         142.2920  140.5852  171.5025 N.am    1  UNL1       -0.3239
      8 C         140.9790  141.1941  171.1087 C.2     1  UNL1        0.2651
      9 O         140.4423  142.3733  171.8646 O.2     1  UNL1       -0.2686
     10 H         142.8016  140.9595  172.2572 H       1  UNL1        0.1453
     11 H         142.6442  139.8113  171.0064 H       1  UNL1        0.1453
     12 N         137.8735  138.9130  166.5095 N.pl3   1  UNL1       -0.3021
     13 H         136.9351  138.6429  166.6350 H       1  UNL1        0.1497
     14 C         138.5268  138.7542  165.1687 C.3     1  UNL1        0.0859
     15 C         139.3755  137.5502  164.8857 C.3     1  UNL1        0.0209
     16 C         140.0288  137.3915  163.5449 C.3     1  UNL1        0.0018
     17 C         139.8334  138.4367  162.4869 C.3     1  UNL1        0.0015
     18 C         138.9847  139.6407  162.7698 C.3     1  UNL1        0.0172
     19 C         138.3314  139.7995  164.1107 C.3     1  UNL1        0.0690
     20 N         137.4826  141.0034  164.3936 N.3     1  UNL1       -0.3209
     21 H         137.4598  141.6045  163.5698 H       1  UNL1        0.1189
     22 H         137.8763  141.5197  165.1803 H       1  UNL1        0.1189
     23 N         142.0581  141.4070  168.3175 N.pl3   1  UNL1       -0.2964
     24 H         142.7726  141.3540  168.9927 H       1  UNL1        0.1537
     25 C         142.2853  142.1646  167.0431 C.ar    1  UNL1        0.0510
     26 C         143.6823  142.4063  166.5531 C.ar    1  UNL1        0.0147
     27 C         143.9095  143.1639  165.2785 C.ar    1  UNL1        0.0029
     28 C         142.7397  143.6799  164.4940 C.ar    1  UNL1        0.0210
     29 C         141.3428  143.4383  164.9840 C.ar    1  UNL1        0.1041
     30 C         141.1155  142.6807  166.2585 C.ar    1  UNL1        0.0355
     31 N         140.1730  143.9542  164.1995 N.ar    1  UNL1       -0.1478
     32 N         140.2402  144.8891  163.0284 N.ar    1  UNL1       -0.1447
     33 C         138.8395  145.1386  162.5535 C.ar    1  UNL1        0.1446
     34 C         137.9065  144.3579  163.4311 C.ar    1  UNL1        0.1446
     35 N         138.7307  143.6259  164.4484 N.ar    1  UNL1       -0.1447
@<TRIPOS>BOND
     1     7     8   am
     2     8     9    2
     3     8     1    1
     4     1     2   ar
     5     2     3   ar
     6     3     4   ar
     7     4    12    1
     8    14    12    1
     9    14    15    1
    10    15    16    1
    11    16    17    1
    12    17    18    1
    13    18    19    1
    14    19    20    1
    15     4     5   ar
    16     5     6   ar
    17     6    23    1
    18    23    25    1
    19    25    26   ar
    20    26    27   ar
    21    27    28   ar
    22    28    29   ar
    23    29    31    1
    24    31    32   ar
    25    32    33   ar
    26    33    34   ar
    27    34    35   ar
    28    29    30   ar
    29     6     1   ar
    30    30    25   ar
    31    19    14    1
    32    35    31   ar
    33     7    10    1
    34     7    11    1
    35    12    13    1
    36    20    21    1
    37    20    22    1
    38    23    24    1
@<TRIPOS>MOLECULE
*****
 35 38 0 0 0
SMALL
GASTEIGER

@<TRIPOS>ATOM
      1 C         140.3078  140.4635  170.0672 C.ar    1  UNL1        0.1873
      2 N         138.9028  140.0189  170.3469 N.ar    1  UNL1       -0.1378
      3 N         138.0403  139.5110  169.2297 N.ar    1  UNL1       -0.1124
      4 C         138.5828  139.4478  167.8327 C.ar    1  UNL1        0.2373
      5 N         139.9878  139.8924  167.5529 N.ar    1  UNL1       -0.1958
      6 C         140.8503  140.4002  168.6702 C.ar    1  UNL1        0.1591
      7 N         142.4759  140.2987  171.4891 N.am    1  UNL1       -0.3239
      8 C         141.1703  140.9713  171.1844 C.2     1  UNL1        0.2651
      9 O         140.7271  142.1517  171.9969 O.2     1  UNL1       -0.2686
     10 H         143.0420  140.6320  172.2224 H       1  UNL1        0.1453
     11 H         142.7668  139.5239  170.9559 H       1  UNL1        0.1453
     12 N         137.7203  138.9399  166.7155 N.pl3   1  UNL1       -0.3021
     13 H         136.7798  138.7051  166.8874 H       1  UNL1        0.1497
     14 C         138.2907  138.7899  165.3363 C.3     1  UNL1        0.0859
     15 C         138.9671  137.5111  164.9395 C.3     1  UNL1        0.0209
     16 C         139.5376  137.3611  163.5604 C.3     1  UNL1        0.0018
     17 C         139.4317  138.4897  162.5780 C.3     1  UNL1        0.0015
     18 C         138.7554  139.7684  162.9748 C.3     1  UNL1        0.0172
     19 C         138.1849  139.9185  164.3540 C.3     1  UNL1        0.0690
     20 N         137.5085  141.1972  164.7508 N.3     1  UNL1       -0.3209
     21 H         137.5272  141.8492  163.9666 H       1  UNL1        0.1189
     22 H         137.9975  141.6079  165.5462 H       1  UNL1        0.1189
     23 N         142.2553  140.8448  168.3903 N.pl3   1  UNL1       -0.2964
     24 H         142.7238  141.4280  169.0304 H       1  UNL1        0.1537
     25 C         142.9466  140.4008  167.1354 C.ar    1  UNL1        0.0510
     26 C         143.3716  138.9708  166.9790 C.ar    1  UNL1        0.0147
     27 C         144.0629  138.5268  165.7239 C.ar    1  UNL1        0.0029
     28 C         144.3291  139.5128  164.6254 C.ar    1  UNL1        0.0210
     29 C         143.9041  140.9428  164.7818 C.ar    1  UNL1        0.1041
     30 C         143.2129  141.3868  166.0367 C.ar    1  UNL1        0.0355
     31 N         144.1704  141.9288  163.6832 N.ar    1  UNL1       -0.1478
     32 N         144.6747  141.6025  162.3088 N.ar    1  UNL1       -0.1447
     33 C         144.7951  142.8863  161.5423 C.ar    1  UNL1        0.1446
     34 C         144.3652  144.0061  162.4431 C.ar    1  UNL1        0.1446
     35 N         143.9791  143.4143  163.7662 N.ar    1  UNL1       -0.1447
@<TRIPOS>BOND
     1     7     8   am
     2     8     9    2
     3     8     1    1
     4     1     2   ar
     5     2     3   ar
     6     3     4   ar
     7     4    12    1
     8    14    12    1
     9    14    15    1
    10    15    16    1
    11    16    17    1
    12    17    18    1
    13    18    19    1
    14    19    20    1
    15     4     5   ar
    16     5     6   ar
    17     6    23    1
    18    23    25    1
    19    25    26   ar
    20    26    27   ar
    21    27    28   ar
    22    28    29   ar
    23    29    31    1
    24    31    32   ar
    25    32    33   ar
    26    33    34   ar
    27    34    35   ar
    28    29    30   ar
    29     6     1   ar
    30    30    25   ar
    31    19    14    1
    32    35    31   ar
    33     7    10    1
    34     7    11    1
    35    12    13    1
    36    20    21    1
    37    20    22    1
    38    23    24    1
@<TRIPOS>MOLECULE
*****
 35 38 0 0 0
SMALL
GASTEIGER

@<TRIPOS>ATOM
      1 C         141.0094  140.3328  169.7843 C.ar    1  UNL1        0.1873
      2 N         139.6014  139.9564  170.1387 N.ar    1  UNL1       -0.1378
      3 N         138.6257  139.5991  169.0568 N.ar    1  UNL1       -0.1124
      4 C         139.0580  139.6182  167.6207 C.ar    1  UNL1        0.2373
      5 N         140.4661  139.9946  167.2663 N.ar    1  UNL1       -0.1958
      6 C         141.4418  140.3519  168.3481 C.ar    1  UNL1        0.1591
      7 N         143.1841  139.8226  171.1112 N.am    1  UNL1       -0.3239
      8 C         141.9852  140.6901  170.8661 C.2     1  UNL1        0.2651
      9 O         141.7620  141.9148  171.7028 O.2     1  UNL1       -0.2686
     10 H         143.8245  140.0572  171.8212 H       1  UNL1        0.1453
     11 H         143.3306  139.0188  170.5620 H       1  UNL1        0.1453
     12 N         138.0823  139.2609  166.5389 N.pl3   1  UNL1       -0.3021
     13 H         137.1178  139.2358  166.7346 H       1  UNL1        0.1497
     14 C         138.5761  138.9420  165.1589 C.3     1  UNL1        0.0859
     15 C         139.3885  137.7037  164.9205 C.3     1  UNL1        0.0209
     16 C         139.8823  137.3847  163.5406 C.3     1  UNL1        0.0018
     17 C         139.5638  138.3040  162.3989 C.3     1  UNL1        0.0015
     18 C         138.7515  139.5423  162.6372 C.3     1  UNL1        0.0172
     19 C         138.2576  139.8613  164.0172 C.3     1  UNL1        0.0690
     20 N         137.4453  141.0995  164.2555 N.3     1  UNL1       -0.3209
     21 H         137.3260  141.6024  163.3761 H       1  UNL1        0.1189
     22 H         137.9266  141.6979  164.9268 H       1  UNL1        0.1189
     23 N         142.8499  140.7283  167.9937 N.pl3   1  UNL1       -0.2964
     24 H         143.5686  140.6279  168.6590 H       1  UNL1        0.1537
     25 C         143.1630  141.2576  166.6256 C.ar    1  UNL1        0.0510
     26 C         143.3767  142.7282  166.4212 C.ar    1  UNL1        0.0147
     27 C         143.6898  143.2575  165.0530 C.ar    1  UNL1        0.0029
     28 C         143.7893  142.3163  163.8893 C.ar    1  UNL1        0.0210
     29 C         143.5756  140.8458  164.0937 C.ar    1  UNL1        0.1041
     30 C         143.2625  140.3164  165.4618 C.ar    1  UNL1        0.0355
     31 N         143.6751  139.9045  162.9301 N.ar    1  UNL1       -0.1478
     32 N         143.3043  138.4511  162.9375 N.ar    1  UNL1       -0.1447
     33 C         143.5628  137.8998  161.5667 C.ar    1  UNL1        0.1446
     34 C         144.0935  139.0125  160.7120 C.ar    1  UNL1        0.1446
     35 N         144.1629  140.2514  161.5547 N.ar    1  UNL1       -0.1447
@<TRIPOS>BOND
     1     7     8   am
     2     8     9    2
     3     8     1    1
     4     1     2   ar
     5     2     3   ar
     6     3     4   ar
     7     4    12    1
     8    14    12    1
     9    14    15    1
    10    15    16    1
    11    16    17    1
    12    17    18    1
    13    18    19    1
    14    19    20    1
    15     4     5   ar
    16     5     6   ar
    17     6    23    1
    18    23    25    1
    19    25    26   ar
    20    26    27   ar
    21    27    28   ar
    22    28    29   ar
    23    29    31    1
    24    31    32   ar
    25    32    33   ar
    26    33    34   ar
    27    34    35   ar
    28    29    30   ar
    29     6     1   ar
    30    30    25   ar
    31    19    14    1
    32    35    31   ar
    33     7    10    1
    34     7    11    1
    35    12    13    1
    36    20    21    1
    37    20    22    1
    38    23    24    1
@<TRIPOS>MOLECULE
*****
 35 38 0 0 0
SMALL
GASTEIGER

@<TRIPOS>ATOM
      1 C         139.2679  140.0938  168.4871 C.ar    1  UNL1        0.1873
      2 N         138.2201  139.0695  168.1664 N.ar    1  UNL1       -0.1378
      3 N         137.9202  138.7255  166.7375 N.ar    1  UNL1       -0.1124
      4 C         138.6680  139.4058  165.6294 C.ar    1  UNL1        0.2373
      5 N         139.7157  140.4301  165.9502 N.ar    1  UNL1       -0.1958
      6 C         140.0157  140.7742  167.3790 C.ar    1  UNL1        0.1591
      7 N         140.2132  139.4229  170.8123 N.am    1  UNL1       -0.3239
      8 C         139.5678  140.4379  169.9160 C.2     1  UNL1        0.2651
      9 O         139.2225  141.7969  170.4486 O.2     1  UNL1       -0.2686
     10 H         140.4100  139.6487  171.7501 H       1  UNL1        0.1453
     11 H         140.4399  138.5309  170.4627 H       1  UNL1        0.1453
     12 N         138.3680  139.0618  164.2005 N.pl3   1  UNL1       -0.3021
     13 H         137.8362  138.2609  163.9882 H       1  UNL1        0.1497
     14 C         138.8782  139.9379  163.0951 C.3     1  UNL1        0.0859
     15 C         140.2170  139.6626  162.4771 C.3     1  UNL1        0.0209
     16 C         140.7273  140.5388  161.3717 C.3     1  UNL1        0.0018
     17 C         139.8987  141.6903  160.8843 C.3     1  UNL1        0.0015
     18 C         138.5600  141.9656  161.5022 C.3     1  UNL1        0.0172
     19 C         138.0497  141.0894  162.6077 C.3     1  UNL1        0.0690
     20 N         136.7109  141.3647  163.2256 N.3     1  UNL1       -0.3209
     21 H         136.2897  142.1776  162.7760 H       1  UNL1        0.1189
     22 H         136.8278  141.5496  164.2218 H       1  UNL1        0.1189
     23 N         141.0635  141.7986  167.6998 N.pl3   1  UNL1       -0.2964
     24 H         141.2404  142.0452  168.6363 H       1  UNL1        0.1537
     25 C         141.8416  142.4472  166.5936 C.ar    1  UNL1        0.0510
     26 C         143.3409  142.4027  166.6052 C.ar    1  UNL1        0.0147
     27 C         144.1191  143.0514  165.4989 C.ar    1  UNL1        0.0029
     28 C         143.3979  143.7445  164.3811 C.ar    1  UNL1        0.0210
     29 C         141.8986  143.7889  164.3695 C.ar    1  UNL1        0.1041
     30 C         141.1205  143.1403  165.4757 C.ar    1  UNL1        0.0355
     31 N         141.1775  144.4820  163.2517 N.ar    1  UNL1       -0.1478
     32 N         139.8177  145.1097  163.3350 N.ar    1  UNL1       -0.1447
     33 C         139.4893  145.6847  161.9891 C.ar    1  UNL1        0.1446
     34 C         140.6462  145.4125  161.0739 C.ar    1  UNL1        0.1446
     35 N         141.6896  144.6692  161.8542 N.ar    1  UNL1       -0.1447
@<TRIPOS>BOND
     1     7     8   am
     2     8     9    2
     3     8     1    1
     4     1     2   ar
     5     2     3   ar
     6     3     4   ar
     7     4    12    1
     8    14    12    1
     9    14    15    1
    10    15    16    1
    11    16    17    1
    12    17    18    1
    13    18    19    1
    14    19    20    1
    15     4     5   ar
    16     5     6   ar
    17     6    23    1
    18    23    25    1
    19    25    26   ar
    20    26    27   ar
    21    27    28   ar
    22    28    29   ar
    23    29    31    1
    24    31    32   ar
    25    32    33   ar
    26    33    34   ar
    27    34    35   ar
    28    29    30   ar
    29     6     1   ar
    30    30    25   ar
    31    19    14    1
    32    35    31   ar
    33     7    10    1
    34     7    11    1
    35    12    13    1
    36    20    21    1
    37    20    22    1
    38    23    24    1
@<TRIPOS>MOLECULE
*****
 35 38 0 0 0
SMALL
GASTEIGER

@<TRIPOS>ATOM
      1 C         138.3621  138.8880  163.0809 C.ar    1  UNL1        0.1873
      2 N         138.9890  137.7483  163.8279 N.ar    1  UNL1       -0.1378
      3 N         139.0997  137.8021  165.3229 N.ar    1  UNL1       -0.1124
      4 C         138.5835  138.9954  166.0708 C.ar    1  UNL1        0.2373
      5 N         137.9567  140.1351  165.3237 N.ar    1  UNL1       -0.1958
      6 C         137.8459  140.0814  163.8288 C.ar    1  UNL1        0.1591
      7 N         139.3117  138.1446  160.7797 N.am    1  UNL1       -0.3239
      8 C         138.2514  138.8343  161.5859 C.2     1  UNL1        0.2651
      9 O         137.0805  139.4703  160.8973 O.2     1  UNL1       -0.2686
     10 H         139.2390  138.1094  159.7985 H       1  UNL1        0.1453
     11 H         140.0802  137.7272  161.2316 H       1  UNL1        0.1453
     12 N         138.6942  139.0491  167.5657 N.pl3   1  UNL1       -0.3021
     13 H         138.2789  138.3461  168.1156 H       1  UNL1        0.1497
     14 C         139.4378  140.1740  168.2228 C.3     1  UNL1        0.0859
     15 C         140.4995  140.9149  167.4651 C.3     1  UNL1        0.0209
     16 C         141.2431  142.0397  168.1222 C.3     1  UNL1        0.0018
     17 C         140.9250  142.4238  169.5369 C.3     1  UNL1        0.0015
     18 C         139.8634  141.6829  170.2945 C.3     1  UNL1        0.0172
     19 C         139.1198  140.5580  169.6375 C.3     1  UNL1        0.0690
     20 N         138.0581  139.8172  170.3951 N.3     1  UNL1       -0.3209
     21 H         137.9750  140.2078  171.3337 H       1  UNL1        0.1189
     22 H         138.3110  138.8310  170.4584 H       1  UNL1        0.1189
     23 N         137.2190  141.2211  163.0817 N.pl3   1  UNL1       -0.2964
     24 H         136.3241  141.1167  162.6849 H       1  UNL1        0.1537
     25 C         137.9556  142.5200  162.9392 C.ar    1  UNL1        0.0510
     26 C         138.0206  143.4759  164.0933 C.ar    1  UNL1        0.0147
     27 C         138.7573  144.7748  163.9508 C.ar    1  UNL1        0.0029
     28 C         139.4289  145.1178  162.6542 C.ar    1  UNL1        0.0210
     29 C         139.3639  144.1619  161.5000 C.ar    1  UNL1        0.1041
     30 C         138.6273  142.8630  161.6425 C.ar    1  UNL1        0.0355
     31 N         140.0355  144.5048  160.2034 N.ar    1  UNL1       -0.1478
     32 N         139.5651  144.1090  158.8352 N.ar    1  UNL1       -0.1447
     33 C         140.5343  144.6633  157.8335 C.ar    1  UNL1        0.1446
     34 C         141.6036  145.4018  158.5826 C.ar    1  UNL1        0.1446
     35 N         141.2953  145.3038  160.0473 N.ar    1  UNL1       -0.1447
@<TRIPOS>BOND
     1     7     8   am
     2     8     9    2
     3     8     1    1
     4     1     2   ar
     5     2     3   ar
     6     3     4   ar
     7     4    12    1
     8    14    12    1
     9    14    15    1
    10    15    16    1
    11    16    17    1
    12    17    18    1
    13    18    19    1
    14    19    20    1
    15     4     5   ar
    16     5     6   ar
    17     6    23    1
    18    23    25    1
    19    25    26   ar
    20    26    27   ar
    21    27    28   ar
    22    28    29   ar
    23    29    31    1
    24    31    32   ar
    25    32    33   ar
    26    33    34   ar
    27    34    35   ar
    28    29    30   ar
    29     6     1   ar
    30    30    25   ar
    31    19    14    1
    32    35    31   ar
    33     7    10    1
    34     7    11    1
    35    12    13    1
    36    20    21    1
    37    20    22    1
    38    23    24    1
@<TRIPOS>MOLECULE
*****
 35 38 0 0 0
SMALL
GASTEIGER

@<TRIPOS>ATOM
      1 C         138.3432  138.7960  163.0709 C.ar    1  UNL1        0.1873
      2 N         138.7869  137.5997  163.8595 N.ar    1  UNL1       -0.1378
      3 N         138.8592  137.6726  165.3560 N.ar    1  UNL1       -0.1124
      4 C         138.4878  138.9418  166.0638 C.ar    1  UNL1        0.2373
      5 N         138.0442  140.1381  165.2752 N.ar    1  UNL1       -0.1958
      6 C         137.9719  140.0652  163.7788 C.ar    1  UNL1        0.1591
      7 N         139.2496  137.8758  160.8166 N.am    1  UNL1       -0.3239
      8 C         138.2709  138.7231  161.5744 C.2     1  UNL1        0.2651
      9 O         137.2200  139.4975  160.8357 O.2     1  UNL1       -0.2686
     10 H         139.2021  137.8280  159.8344 H       1  UNL1        0.1453
     11 H         139.9394  137.3675  161.3015 H       1  UNL1        0.1453
     12 N         138.5601  139.0147  167.5603 N.pl3   1  UNL1       -0.3021
     13 H         138.0574  138.3704  168.1094 H       1  UNL1        0.1497
     14 C         139.3983  140.0692  168.2202 C.3     1  UNL1        0.0859
     15 C         140.5225  140.7148  167.4656 C.3     1  UNL1        0.0209
     16 C         141.3606  141.7693  168.1255 C.3     1  UNL1        0.0018
     17 C         141.0747  142.1782  169.5400 C.3     1  UNL1        0.0015
     18 C         139.9506  141.5326  170.2947 C.3     1  UNL1        0.0172
     19 C         139.1123  140.4781  169.6348 C.3     1  UNL1        0.0690
     20 N         137.9882  139.8325  170.3895 N.3     1  UNL1       -0.3209
     21 H         137.9378  140.2278  171.3284 H       1  UNL1        0.1189
     22 H         138.1534  138.8279  170.4520 H       1  UNL1        0.1189
     23 N         137.5282  141.2617  162.9902 N.pl3   1  UNL1       -0.2964
     24 H         136.6614  141.2499  162.5236 H       1  UNL1        0.1537
     25 C         138.4053  142.4760  162.9124 C.ar    1  UNL1        0.0510
     26 C         137.7911  143.8442  162.8840 C.ar    1  UNL1        0.0147
     27 C         138.6683  145.0586  162.8062 C.ar    1  UNL1        0.0029
     28 C         140.1595  144.9047  162.7569 C.ar    1  UNL1        0.0210
     29 C         140.7737  143.5365  162.7854 C.ar    1  UNL1        0.1041
     30 C         139.8966  142.3222  162.8631 C.ar    1  UNL1        0.0355
     31 N         142.2649  143.3826  162.7361 N.ar    1  UNL1       -0.1478
     32 N         143.0561  142.2613  163.3416 N.ar    1  UNL1       -0.1447
     33 C         144.5070  142.5087  163.0524 C.ar    1  UNL1        0.1446
     34 C         144.6126  143.7830  162.2681 C.ar    1  UNL1        0.1446
     35 N         143.2269  144.3231  162.0726 N.ar    1  UNL1       -0.1447
@<TRIPOS>BOND
     1     7     8   am
     2     8     9    2
     3     8     1    1
     4     1     2   ar
     5     2     3   ar
     6     3     4   ar
     7     4    12    1
     8    14    12    1
     9    14    15    1
    10    15    16    1
    11    16    17    1
    12    17    18    1
    13    18    19    1
    14    19    20    1
    15     4     5   ar
    16     5     6   ar
    17     6    23    1
    18    23    25    1
    19    25    26   ar
    20    26    27   ar
    21    27    28   ar
    22    28    29   ar
    23    29    31    1
    24    31    32   ar
    25    32    33   ar
    26    33    34   ar
    27    34    35   ar
    28    29    30   ar
    29     6     1   ar
    30    30    25   ar
    31    19    14    1
    32    35    31   ar
    33     7    10    1
    34     7    11    1
    35    12    13    1
    36    20    21    1
    37    20    22    1
    38    23    24    1
@<TRIPOS>MOLECULE
*****
 35 38 0 0 0
SMALL
GASTEIGER

@<TRIPOS>ATOM
      1 C         139.3865  139.8618  168.0696 C.ar    1  UNL1        0.1873
      2 N         138.1234  139.0905  167.8256 N.ar    1  UNL1       -0.1378
      3 N         137.9486  138.3219  166.5494 N.ar    1  UNL1       -0.1124
      4 C         139.0369  138.3247  165.5172 C.ar    1  UNL1        0.2373
      5 N         140.3000  139.0960  165.7612 N.ar    1  UNL1       -0.1958
      6 C         140.4748  139.8646  167.0374 C.ar    1  UNL1        0.1591
      7 N         139.2861  139.9686  170.6636 N.am    1  UNL1       -0.3239
      8 C         139.5613  140.6303  169.3459 C.2     1  UNL1        0.2651
      9 O         140.0112  142.0606  169.3044 O.2     1  UNL1       -0.2686
     10 H         139.4008  140.4730  171.5012 H       1  UNL1        0.1453
     11 H         138.9908  139.0298  170.6908 H       1  UNL1        0.1453
     12 N         138.8621  137.5561  164.2409 N.pl3   1  UNL1       -0.3021
     13 H         138.6140  136.6038  164.2698 H       1  UNL1        0.1497
     14 C         139.0653  138.2385  162.9207 C.3     1  UNL1        0.0859
     15 C         138.0343  139.1990  162.4063 C.3     1  UNL1        0.0209
     16 C         138.2375  139.8813  161.0860 C.3     1  UNL1        0.0018
     17 C         139.4717  139.6032  160.2802 C.3     1  UNL1        0.0015
     18 C         140.5027  138.6428  160.7945 C.3     1  UNL1        0.0172
     19 C         140.2995  137.9604  162.1148 C.3     1  UNL1        0.0690
     20 N         141.3305  136.9999  162.6292 N.3     1  UNL1       -0.3209
     21 H         142.0962  136.9319  161.9588 H       1  UNL1        0.1189
     22 H         140.9062  136.0810  162.7551 H       1  UNL1        0.1189
     23 N         141.7380  140.6359  167.2814 N.pl3   1  UNL1       -0.2964
     24 H         142.2942  140.4335  168.0680 H       1  UNL1        0.1537
     25 C         142.1536  141.7158  166.3268 C.ar    1  UNL1        0.0510
     26 C         143.6011  142.0877  166.1993 C.ar    1  UNL1        0.0147
     27 C         144.0167  143.1676  165.2447 C.ar    1  UNL1        0.0029
     28 C         142.9847  143.8755  164.4177 C.ar    1  UNL1        0.0210
     29 C         141.5372  143.5035  164.5452 C.ar    1  UNL1        0.1041
     30 C         141.1216  142.4237  165.4998 C.ar    1  UNL1        0.0355
     31 N         140.5052  144.2114  163.7182 N.ar    1  UNL1       -0.1478
     32 N         140.7605  145.3486  162.7740 N.ar    1  UNL1       -0.1447
     33 C         139.4499  145.7464  162.1624 C.ar    1  UNL1        0.1446
     34 C         138.3846  144.8550  162.7287 C.ar    1  UNL1        0.1446
     35 N         139.0368  143.9063  163.6902 N.ar    1  UNL1       -0.1447
@<TRIPOS>BOND
     1     7     8   am
     2     8     9    2
     3     8     1    1
     4     1     2   ar
     5     2     3   ar
     6     3     4   ar
     7     4    12    1
     8    14    12    1
     9    14    15    1
    10    15    16    1
    11    16    17    1
    12    17    18    1
    13    18    19    1
    14    19    20    1
    15     4     5   ar
    16     5     6   ar
    17     6    23    1
    18    23    25    1
    19    25    26   ar
    20    26    27   ar
    21    27    28   ar
    22    28    29   ar
    23    29    31    1
    24    31    32   ar
    25    32    33   ar
    26    33    34   ar
    27    34    35   ar
    28    29    30   ar
    29     6     1   ar
    30    30    25   ar
    31    19    14    1
    32    35    31   ar
    33     7    10    1
    34     7    11    1
    35    12    13    1
    36    20    21    1
    37    20    22    1
    38    23    24    1
@<TRIPOS>MOLECULE
*****
 35 38 0 0 0
SMALL
GASTEIGER

@<TRIPOS>ATOM
      1 C         141.2255  141.4528  169.1071 C.ar    1  UNL1        0.1873
      2 N         141.8207  140.2028  169.6844 N.ar    1  UNL1       -0.1378
      3 N         142.5814  139.2577  168.8023 N.ar    1  UNL1       -0.1124
      4 C         142.7469  139.5625  167.3430 C.ar    1  UNL1        0.2373
      5 N         142.1517  140.8125  166.7657 N.ar    1  UNL1       -0.1958
      6 C         141.3910  141.7576  167.6478 C.ar    1  UNL1        0.1591
      7 N         139.2131  141.9391  170.6767 N.am    1  UNL1       -0.3239
      8 C         140.4648  142.3979  169.9892 C.2     1  UNL1        0.2651
      9 O         140.9557  143.8019  170.1836 O.2     1  UNL1       -0.2686
     10 H         138.7138  142.5594  171.2557 H       1  UNL1        0.1453
     11 H         138.8909  141.0176  170.5491 H       1  UNL1        0.1453
     12 N         143.5077  138.6174  166.4609 N.pl3   1  UNL1       -0.3021
     13 H         143.9898  137.8554  166.8561 H       1  UNL1        0.1497
     14 C         143.5338  138.8332  164.9768 C.3     1  UNL1        0.0859
     15 C         144.5997  139.6913  164.3623 C.3     1  UNL1        0.0209
     16 C         144.6258  139.9071  162.8781 C.3     1  UNL1        0.0018
     17 C         143.5860  139.2648  162.0084 C.3     1  UNL1        0.0015
     18 C         142.5201  138.4067  162.6229 C.3     1  UNL1        0.0172
     19 C         142.4940  138.1909  164.1071 C.3     1  UNL1        0.0690
     20 N         141.4281  137.3328  164.7216 N.3     1  UNL1       -0.3209
     21 H         140.8113  136.9805  163.9896 H       1  UNL1        0.1189
     22 H         140.8865  137.8865  165.3852 H       1  UNL1        0.1189
     23 N         140.7958  143.0076  167.0705 N.pl3   1  UNL1       -0.2964
     24 H         141.0619  143.8877  167.4225 H       1  UNL1        0.1537
     25 C         139.7951  142.9168  165.9567 C.ar    1  UNL1        0.0510
     26 C         138.9827  144.1196  165.5784 C.ar    1  UNL1        0.0147
     27 C         137.9820  144.0287  164.4646 C.ar    1  UNL1        0.0029
     28 C         137.7939  142.7350  163.7292 C.ar    1  UNL1        0.0210
     29 C         138.6063  141.5322  164.1074 C.ar    1  UNL1        0.1041
     30 C         139.6070  141.6231  165.2212 C.ar    1  UNL1        0.0355
     31 N         138.4182  140.2385  163.3720 N.ar    1  UNL1       -0.1478
     32 N         138.9391  138.8981  163.7984 N.ar    1  UNL1       -0.1447
     33 C         138.5190  137.8893  162.7709 C.ar    1  UNL1        0.1446
     34 C         137.7384  138.6062  161.7094 C.ar    1  UNL1        0.1446
     35 N         137.6761  140.0581  162.0809 N.ar    1  UNL1       -0.1447
@<TRIPOS>BOND
     1     7     8   am
     2     8     9    2
     3     8     1    1
     4     1     2   ar
     5     2     3   ar
     6     3     4   ar
     7     4    12    1
     8    14    12    1
     9    14    15    1
    10    15    16    1
    11    16    17    1
    12    17    18    1
    13    18    19    1
    14    19    20    1
    15     4     5   ar
    16     5     6   ar
    17     6    23    1
    18    23    25    1
    19    25    26   ar
    20    26    27   ar
    21    27    28   ar
    22    28    29   ar
    23    29    31    1
    24    31    32   ar
    25    32    33   ar
    26    33    34   ar
    27    34    35   ar
    28    29    30   ar
    29     6     1   ar
    30    30    25   ar
    31    19    14    1
    32    35    31   ar
    33     7    10    1
    34     7    11    1
    35    12    13    1
    36    20    21    1
    37    20    22    1
    38    23    24    1
@<TRIPOS>MOLECULE
*****
 35 38 0 0 0
SMALL
GASTEIGER

@<TRIPOS>ATOM
      1 C         139.6621  139.4378  158.7381 C.ar    1  UNL1        0.1873
      2 N         139.3245  140.6704  157.9529 N.ar    1  UNL1       -0.1378
      3 N         138.6967  141.8477  158.6383 N.ar    1  UNL1       -0.1124
      4 C         138.4065  141.7924  160.1089 C.ar    1  UNL1        0.2373
      5 N         138.7440  140.5597  160.8941 N.ar    1  UNL1       -0.1958
      6 C         139.3718  139.3824  160.2087 C.ar    1  UNL1        0.1591
      7 N         139.4942  137.4519  157.0713 N.am    1  UNL1       -0.3239
      8 C         140.2899  138.2604  158.0527 C.2     1  UNL1        0.2651
      9 O         141.7134  137.8917  158.3487 O.2     1  UNL1       -0.2686
     10 H         139.9063  136.6792  156.6215 H       1  UNL1        0.1453
     11 H         138.5599  137.6940  156.8770 H       1  UNL1        0.1453
     12 N         137.7786  142.9697  160.7943 N.pl3   1  UNL1       -0.3021
     13 H         137.0972  143.5053  160.3274 H       1  UNL1        0.1497
     14 C         138.1891  143.3310  162.1911 C.3     1  UNL1        0.0859
     15 C         139.1299  144.4759  162.4239 C.3     1  UNL1        0.0209
     16 C         139.5404  144.8372  163.8207 C.3     1  UNL1        0.0018
     17 C         139.0100  144.0536  164.9846 C.3     1  UNL1        0.0015
     18 C         138.0692  142.9088  164.7518 C.3     1  UNL1        0.0172
     19 C         137.6587  142.5475  163.3550 C.3     1  UNL1        0.0690
     20 N         136.7179  141.4027  163.1222 N.3     1  UNL1       -0.3209
     21 H         136.4603  140.9869  164.0173 H       1  UNL1        0.1189
     22 H         137.1743  140.7005  162.5400 H       1  UNL1        0.1189
     23 N         139.7094  138.1497  160.9940 N.pl3   1  UNL1       -0.2964
     24 H         139.3444  137.2770  160.7211 H       1  UNL1        0.1537
     25 C         140.6029  138.2467  162.1948 C.ar    1  UNL1        0.0510
     26 C         140.4272  137.2933  163.3394 C.ar    1  UNL1        0.0147
     27 C         141.3208  137.3904  164.5403 C.ar    1  UNL1        0.0029
     28 C         142.3901  138.4408  164.5966 C.ar    1  UNL1        0.0210
     29 C         142.5658  139.3942  163.4520 C.ar    1  UNL1        0.1041
     30 C         141.6723  139.2972  162.2511 C.ar    1  UNL1        0.0355
     31 N         143.6351  140.4446  163.5082 N.ar    1  UNL1       -0.1478
     32 N         145.0980  140.2023  163.7348 N.ar    1  UNL1       -0.1447
     33 C         145.7963  141.5297  163.7144 C.ar    1  UNL1        0.1446
     34 C         144.7650  142.5924  163.4751 C.ar    1  UNL1        0.1446
     35 N         143.4294  141.9217  163.3477 N.ar    1  UNL1       -0.1447
@<TRIPOS>BOND
     1     7     8   am
     2     8     9    2
     3     8     1    1
     4     1     2   ar
     5     2     3   ar
     6     3     4   ar
     7     4    12    1
     8    14    12    1
     9    14    15    1
    10    15    16    1
    11    16    17    1
    12    17    18    1
    13    18    19    1
    14    19    20    1
    15     4     5   ar
    16     5     6   ar
    17     6    23    1
    18    23    25    1
    19    25    26   ar
    20    26    27   ar
    21    27    28   ar
    22    28    29   ar
    23    29    31    1
    24    31    32   ar
    25    32    33   ar
    26    33    34   ar
    27    34    35   ar
    28    29    30   ar
    29     6     1   ar
    30    30    25   ar
    31    19    14    1
    32    35    31   ar
    33     7    10    1
    34     7    11    1
    35    12    13    1
    36    20    21    1
    37    20    22    1
    38    23    24    1
