@<TRIPOS>MOLECULE
*****
 28 30 0 0 0
SMALL
GASTEIGER

@<TRIPOS>ATOM
      1 C         139.1641  143.5536  162.8496 C.2     1  UNL1        0.2463
      2 O         137.8472  144.2382  162.6327 O.2     1  UNL1       -0.2701
      3 N         140.1883  143.5334  161.7539 N.am    1  UNL1       -0.2974
      4 H         141.0527  143.0841  161.8962 H       1  UNL1        0.1500
      5 C         137.9920  140.6757  163.8463 C.3     1  UNL1        0.0383
      6 C         138.9181  141.5663  164.6203 C.ar    1  UNL1        0.0120
      7 S         139.4680  141.2905  165.9883 S.2     1  UNL1       -0.0911
      8 C         140.3466  142.4429  166.3757 C.ar    1  UNL1        0.0301
      9 C         140.3397  143.4309  165.2471 C.ar    1  UNL1        0.0112
     10 C         139.4569  142.8892  164.1622 C.ar    1  UNL1        0.0558
     11 C         141.0999  142.5827  167.6654 C.ar    1  UNL1        0.0166
     12 C         140.4294  143.1858  168.8640 C.ar    1  UNL1        0.0013
     13 C         141.1827  143.3255  170.1535 C.ar    1  UNL1        0.0001
     14 C         142.6064  142.8623  170.2445 C.ar    1  UNL1        0.0009
     15 C         143.2769  142.2592  169.0458 C.ar    1  UNL1        0.0114
     16 C         142.5237  142.1195  167.7563 C.ar    1  UNL1        0.0581
     17 CL        143.1942  141.5164  166.5576 Cl      1  UNL1       -0.0822
     18 C         139.8956  144.1979  160.4413 C.3     1  UNL1        0.1099
     19 C         139.4280  143.3797  159.2743 C.ar    1  UNL1       -0.0032
     20 C         139.6718  143.8615  157.8749 C.ar    1  UNL1       -0.0026
     21 C         139.2042  143.0433  156.7078 C.ar    1  UNL1       -0.0003
     22 C         138.4929  141.7433  156.9403 C.ar    1  UNL1       -0.0000
     23 C         138.2491  141.2615  158.3398 C.ar    1  UNL1       -0.0003
     24 C         138.7167  142.0798  159.5067 C.ar    1  UNL1       -0.0026
     25 C         140.0705  145.6805  160.2958 C.3     1  UNL1        0.0896
     26 N         139.1936  146.6187  161.0709 N.3     1  UNL1       -0.3195
     27 H         138.2301  146.5280  160.7487 H       1  UNL1        0.1189
     28 H         139.5112  147.5774  160.9278 H       1  UNL1        0.1189
@<TRIPOS>BOND
     1     5     6    1
     2     6     7   ar
     3     7     8   ar
     4     8    11    1
     5    11    12   ar
     6    12    13   ar
     7    13    14   ar
     8    14    15   ar
     9    15    16   ar
    10    16    17    1
    11     8     9   ar
    12     9    10   ar
    13    10     1    1
    14     1     2    2
    15     1     3   am
    16     3    18    1
    17    18    25    1
    18    25    26    1
    19    18    19    1
    20    19    20   ar
    21    20    21   ar
    22    21    22   ar
    23    22    23   ar
    24    23    24   ar
    25    10     6   ar
    26    24    19   ar
    27    16    11   ar
    28     3     4    1
    29    26    27    1
    30    26    28    1
@<TRIPOS>MOLECULE
*****
 28 30 0 0 0
SMALL
GASTEIGER

@<TRIPOS>ATOM
      1 C         142.2612  144.0871  163.1746 C.2     1  UNL1        0.2463
      2 O         143.2860  145.1379  162.8653 O.2     1  UNL1       -0.2701
      3 N         141.1888  143.7684  162.1754 N.am    1  UNL1       -0.2974
      4 H         140.5162  143.0787  162.3784 H       1  UNL1        0.1500
      5 C         144.8833  142.6365  164.4669 C.3     1  UNL1        0.0383
      6 C         143.5140  142.6884  165.0770 C.ar    1  UNL1        0.0120
      7 S         143.1095  142.0826  166.3883 S.2     1  UNL1       -0.0911
      8 C         141.6543  142.3750  166.6047 C.ar    1  UNL1        0.0301
      9 C         141.1594  143.1615  165.4272 C.ar    1  UNL1        0.0112
     10 C         142.3087  143.3552  164.4831 C.ar    1  UNL1        0.0558
     11 C         140.8373  141.9547  167.7905 C.ar    1  UNL1        0.0166
     12 C         140.7330  142.8542  168.9863 C.ar    1  UNL1        0.0013
     13 C         139.9161  142.4339  170.1720 C.ar    1  UNL1        0.0001
     14 C         139.2036  141.1140  170.1619 C.ar    1  UNL1        0.0009
     15 C         139.3079  140.2144  168.9662 C.ar    1  UNL1        0.0114
     16 C         140.1248  140.6348  167.7805 C.ar    1  UNL1        0.0581
     17 CL        140.2291  139.7352  166.5846 Cl      1  UNL1       -0.0822
     18 C         141.1413  144.5003  160.8670 C.3     1  UNL1        0.1099
     19 C         141.9443  144.0049  159.7009 C.ar    1  UNL1       -0.0032
     20 C         142.9972  142.9566  159.9066 C.ar    1  UNL1       -0.0026
     21 C         143.8003  142.4612  158.7405 C.ar    1  UNL1       -0.0003
     22 C         143.5503  143.0142  157.3687 C.ar    1  UNL1       -0.0000
     23 C         142.4973  144.0625  157.1630 C.ar    1  UNL1       -0.0003
     24 C         141.6944  144.5578  158.3292 C.ar    1  UNL1       -0.0026
     25 C         140.2908  145.7276  160.7247 C.3     1  UNL1        0.0896
     26 N         140.0090  146.5875  161.9210 N.3     1  UNL1       -0.3195
     27 H         139.4437  146.0647  162.5900 H       1  UNL1        0.1189
     28 H         139.5025  147.4229  161.6275 H       1  UNL1        0.1189
@<TRIPOS>BOND
     1     5     6    1
     2     6     7   ar
     3     7     8   ar
     4     8    11    1
     5    11    12   ar
     6    12    13   ar
     7    13    14   ar
     8    14    15   ar
     9    15    16   ar
    10    16    17    1
    11     8     9   ar
    12     9    10   ar
    13    10     1    1
    14     1     2    2
    15     1     3   am
    16     3    18    1
    17    18    25    1
    18    25    26    1
    19    18    19    1
    20    19    20   ar
    21    20    21   ar
    22    21    22   ar
    23    22    23   ar
    24    23    24   ar
    25    10     6   ar
    26    24    19   ar
    27    16    11   ar
    28     3     4    1
    29    26    27    1
    30    26    28    1
@<TRIPOS>MOLECULE
*****
 28 30 0 0 0
SMALL
GASTEIGER

@<TRIPOS>ATOM
      1 C         141.1129  138.6846  162.5289 C.2     1  UNL1        0.2463
      2 O         141.3841  137.2093  162.5312 O.2     1  UNL1       -0.2701
      3 N         141.6476  139.5437  161.4217 N.am    1  UNL1       -0.2974
      4 H         141.4696  140.5120  161.4203 H       1  UNL1        0.1500
      5 C         137.9392  139.4335  162.4006 C.3     1  UNL1        0.0383
      6 C         138.8482  139.6449  163.5749 C.ar    1  UNL1        0.0120
      7 S         138.4581  140.2377  164.8964 S.2     1  UNL1       -0.0911
      8 C         139.6757  140.2599  165.7721 C.ar    1  UNL1        0.0301
      9 C         140.8184  139.6807  164.9919 C.ar    1  UNL1        0.0112
     10 C         140.3070  139.3007  163.6339 C.ar    1  UNL1        0.0558
     11 C         139.7394  140.7713  167.1809 C.ar    1  UNL1        0.0166
     12 C         139.2219  139.9288  168.3088 C.ar    1  UNL1        0.0013
     13 C         139.2857  140.4403  169.7174 C.ar    1  UNL1        0.0001
     14 C         139.8669  141.7943  169.9981 C.ar    1  UNL1        0.0009
     15 C         140.3844  142.6369  168.8702 C.ar    1  UNL1        0.0114
     16 C         140.3207  142.1254  167.4615 C.ar    1  UNL1        0.0581
     17 CL        140.8382  142.9679  166.3335 Cl      1  UNL1       -0.0822
     18 C         142.4535  138.9276  160.3167 C.3     1  UNL1        0.1099
     19 C         141.7713  138.4395  159.0732 C.ar    1  UNL1       -0.0032
     20 C         140.3353  138.7902  158.8187 C.ar    1  UNL1       -0.0026
     21 C         139.6530  138.3021  157.5752 C.ar    1  UNL1       -0.0003
     22 C         140.4069  137.4634  156.5862 C.ar    1  UNL1       -0.0000
     23 C         141.8430  137.1127  156.8407 C.ar    1  UNL1       -0.0003
     24 C         142.5251  137.6008  158.0843 C.ar    1  UNL1       -0.0026
     25 C         143.9415  138.7996  160.4553 C.3     1  UNL1        0.0896
     26 N         144.5225  137.9316  161.5319 N.3     1  UNL1       -0.3195
     27 H         144.2994  138.3273  162.4451 H       1  UNL1        0.1189
     28 H         145.5353  137.8836  161.4203 H       1  UNL1        0.1189
@<TRIPOS>BOND
     1     5     6    1
     2     6     7   ar
     3     7     8   ar
     4     8    11    1
     5    11    12   ar
     6    12    13   ar
     7    13    14   ar
     8    14    15   ar
     9    15    16   ar
    10    16    17    1
    11     8     9   ar
    12     9    10   ar
    13    10     1    1
    14     1     2    2
    15     1     3   am
    16     3    18    1
    17    18    25    1
    18    25    26    1
    19    18    19    1
    20    19    20   ar
    21    20    21   ar
    22    21    22   ar
    23    22    23   ar
    24    23    24   ar
    25    10     6   ar
    26    24    19   ar
    27    16    11   ar
    28     3     4    1
    29    26    27    1
    30    26    28    1
@<TRIPOS>MOLECULE
*****
 28 30 0 0 0
SMALL
GASTEIGER

@<TRIPOS>ATOM
      1 C         144.3386  142.4731  159.7099 C.2     1  UNL1        0.2463
      2 O         142.9003  142.8921  159.7841 O.2     1  UNL1       -0.2701
      3 N         145.1786  142.4519  160.9524 N.am    1  UNL1       -0.2974
      4 H         146.1227  142.1769  160.9037 H       1  UNL1        0.1500
      5 C         143.3168  140.0347  157.7968 C.3     1  UNL1        0.0383
      6 C         144.4673  140.9546  157.5138 C.ar    1  UNL1        0.0120
      7 S         145.3501  140.9152  156.3018 S.2     1  UNL1       -0.0911
      8 C         146.3655  142.0116  156.4320 C.ar    1  UNL1        0.0301
      9 C         146.1101  142.7287  157.7245 C.ar    1  UNL1        0.0112
     10 C         144.9370  142.0754  158.3931 C.ar    1  UNL1        0.0558
     11 C         147.4464  142.3343  155.4432 C.ar    1  UNL1        0.0166
     12 C         148.8060  141.7182  155.5907 C.ar    1  UNL1        0.0013
     13 C         149.8868  142.0410  154.6020 C.ar    1  UNL1        0.0001
     14 C         149.6080  142.9798  153.4658 C.ar    1  UNL1        0.0009
     15 C         148.2484  143.5959  153.3183 C.ar    1  UNL1        0.0114
     16 C         147.1676  143.2732  154.3071 C.ar    1  UNL1        0.0581
     17 CL        145.8078  143.8893  154.1597 Cl      1  UNL1       -0.0822
     18 C         144.5802  142.8496  162.2691 C.3     1  UNL1        0.1099
     19 C         144.2528  141.8017  163.2913 C.ar    1  UNL1       -0.0032
     20 C         143.0376  141.9528  164.1574 C.ar    1  UNL1       -0.0026
     21 C         142.7101  140.9049  165.1796 C.ar    1  UNL1       -0.0003
     22 C         143.5981  139.7060  165.3355 C.ar    1  UNL1       -0.0000
     23 C         144.8133  139.5549  164.4693 C.ar    1  UNL1       -0.0003
     24 C         145.1407  140.6029  163.4472 C.ar    1  UNL1       -0.0026
     25 C         144.3093  144.2952  162.5637 C.3     1  UNL1        0.0896
     26 N         143.0308  144.9281  162.1002 N.3     1  UNL1       -0.3195
     27 H         143.0151  144.9558  161.0807 H       1  UNL1        0.1189
     28 H         142.9691  145.8778  162.4671 H       1  UNL1        0.1189
@<TRIPOS>BOND
     1     5     6    1
     2     6     7   ar
     3     7     8   ar
     4     8    11    1
     5    11    12   ar
     6    12    13   ar
     7    13    14   ar
     8    14    15   ar
     9    15    16   ar
    10    16    17    1
    11     8     9   ar
    12     9    10   ar
    13    10     1    1
    14     1     2    2
    15     1     3   am
    16     3    18    1
    17    18    25    1
    18    25    26    1
    19    18    19    1
    20    19    20   ar
    21    20    21   ar
    22    21    22   ar
    23    22    23   ar
    24    23    24   ar
    25    10     6   ar
    26    24    19   ar
    27    16    11   ar
    28     3     4    1
    29    26    27    1
    30    26    28    1
@<TRIPOS>MOLECULE
*****
 28 30 0 0 0
SMALL
GASTEIGER

@<TRIPOS>ATOM
      1 C         142.2172  143.7753  162.5203 C.2     1  UNL1        0.2463
      2 O         143.3240  144.7876  162.5332 O.2     1  UNL1       -0.2701
      3 N         142.0150  142.9003  161.3189 N.am    1  UNL1       -0.2974
      4 H         141.2885  142.2360  161.3104 H       1  UNL1        0.1500
      5 C         139.3348  145.2530  162.9178 C.3     1  UNL1        0.0383
      6 C         139.9876  144.3173  163.8916 C.ar    1  UNL1        0.0120
      7 S         139.4301  143.8965  165.2190 S.2     1  UNL1       -0.0911
      8 C         140.4105  142.9572  165.8568 C.ar    1  UNL1        0.0301
      9 C         141.5738  142.7974  164.9234 C.ar    1  UNL1        0.0112
     10 C         141.3125  143.6380  163.7089 C.ar    1  UNL1        0.0558
     11 C         140.2548  142.2940  167.1932 C.ar    1  UNL1        0.0166
     12 C         140.5227  143.0675  168.4501 C.ar    1  UNL1        0.0013
     13 C         140.3670  142.4043  169.7864 C.ar    1  UNL1        0.0001
     14 C         139.9433  140.9676  169.8659 C.ar    1  UNL1        0.0009
     15 C         139.6754  140.1941  168.6091 C.ar    1  UNL1        0.0114
     16 C         139.8311  140.8573  167.2727 C.ar    1  UNL1        0.0581
     17 CL        139.5631  140.0837  166.0157 Cl      1  UNL1       -0.0822
     18 C         142.9197  143.0376  160.1303 C.3     1  UNL1        0.1099
     19 C         142.4731  143.8260  158.9349 C.ar    1  UNL1       -0.0032
     20 C         142.9841  143.4724  157.5697 C.ar    1  UNL1       -0.0026
     21 C         142.5376  144.2609  156.3742 C.ar    1  UNL1       -0.0003
     22 C         141.5799  145.4029  156.5442 C.ar    1  UNL1       -0.0000
     23 C         141.0689  145.7564  157.9094 C.ar    1  UNL1       -0.0003
     24 C         141.5155  144.9680  159.1047 C.ar    1  UNL1       -0.0026
     25 C         144.2709  142.3865  160.1371 C.3     1  UNL1        0.0896
     26 N         145.2781  142.7600  161.1841 N.3     1  UNL1       -0.3195
     27 H         145.5578  143.7324  161.0552 H       1  UNL1        0.1189
     28 H         146.0962  142.1567  161.0994 H       1  UNL1        0.1189
@<TRIPOS>BOND
     1     5     6    1
     2     6     7   ar
     3     7     8   ar
     4     8    11    1
     5    11    12   ar
     6    12    13   ar
     7    13    14   ar
     8    14    15   ar
     9    15    16   ar
    10    16    17    1
    11     8     9   ar
    12     9    10   ar
    13    10     1    1
    14     1     2    2
    15     1     3   am
    16     3    18    1
    17    18    25    1
    18    25    26    1
    19    18    19    1
    20    19    20   ar
    21    20    21   ar
    22    21    22   ar
    23    22    23   ar
    24    23    24   ar
    25    10     6   ar
    26    24    19   ar
    27    16    11   ar
    28     3     4    1
    29    26    27    1
    30    26    28    1
@<TRIPOS>MOLECULE
*****
 28 30 0 0 0
SMALL
GASTEIGER

@<TRIPOS>ATOM
      1 C         141.7874  138.1928  158.4879 C.2     1  UNL1        0.2463
      2 O         140.7784  138.5237  157.4284 O.2     1  UNL1       -0.2701
      3 N         142.9471  137.2976  158.1658 N.am    1  UNL1       -0.2974
      4 H         143.6093  137.0805  158.8611 H       1  UNL1        0.1500
      5 C         143.7856  140.3466  159.9086 C.3     1  UNL1        0.0383
      6 C         142.5552  139.7472  160.5226 C.ar    1  UNL1        0.0120
      7 S         142.0273  140.0324  161.8973 S.2     1  UNL1       -0.0911
      8 C         140.7825  139.2188  162.0939 C.ar    1  UNL1        0.0301
      9 C         140.5412  138.4306  160.8407 C.ar    1  UNL1        0.0112
     10 C         141.6368  138.7572  159.8695 C.ar    1  UNL1        0.0558
     11 C         139.9290  139.1971  163.3272 C.ar    1  UNL1        0.0166
     12 C         138.9692  140.3182  163.5948 C.ar    1  UNL1        0.0013
     13 C         138.1157  140.2965  164.8281 C.ar    1  UNL1        0.0001
     14 C         138.2221  139.1537  165.7938 C.ar    1  UNL1        0.0009
     15 C         139.1819  138.0325  165.5262 C.ar    1  UNL1        0.0114
     16 C         140.0354  138.0542  164.2929 C.ar    1  UNL1        0.0581
     17 CL        140.9953  136.9331  164.0253 Cl      1  UNL1       -0.0822
     18 C         143.0977  136.7333  156.7841 C.3     1  UNL1        0.1099
     19 C         142.7761  135.2916  156.5237 C.ar    1  UNL1       -0.0032
     20 C         141.7118  134.9281  155.5311 C.ar    1  UNL1       -0.0026
     21 C         141.3901  133.4863  155.2706 C.ar    1  UNL1       -0.0003
     22 C         142.1327  132.4081  156.0028 C.ar    1  UNL1       -0.0000
     23 C         143.1969  132.7716  156.9954 C.ar    1  UNL1       -0.0003
     24 C         143.5185  134.2134  157.2558 C.ar    1  UNL1       -0.0026
     25 C         143.5701  137.6107  155.6631 C.3     1  UNL1        0.0896
     26 N         144.9931  137.5295  155.1956 N.3     1  UNL1       -0.3195
     27 H         145.6138  137.8520  155.9380 H       1  UNL1        0.1189
     28 H         145.1144  138.1180  154.3714 H       1  UNL1        0.1189
@<TRIPOS>BOND
     1     5     6    1
     2     6     7   ar
     3     7     8   ar
     4     8    11    1
     5    11    12   ar
     6    12    13   ar
     7    13    14   ar
     8    14    15   ar
     9    15    16   ar
    10    16    17    1
    11     8     9   ar
    12     9    10   ar
    13    10     1    1
    14     1     2    2
    15     1     3   am
    16     3    18    1
    17    18    25    1
    18    25    26    1
    19    18    19    1
    20    19    20   ar
    21    20    21   ar
    22    21    22   ar
    23    22    23   ar
    24    23    24   ar
    25    10     6   ar
    26    24    19   ar
    27    16    11   ar
    28     3     4    1
    29    26    27    1
    30    26    28    1
@<TRIPOS>MOLECULE
*****
 28 30 0 0 0
SMALL
GASTEIGER

@<TRIPOS>ATOM
      1 C         139.0814  142.7349  162.8595 C.2     1  UNL1        0.2463
      2 O         137.7892  143.4903  162.7606 O.2     1  UNL1       -0.2701
      3 N         140.2081  143.0501  161.9208 N.am    1  UNL1       -0.2974
      4 H         141.0561  142.5543  161.9857 H       1  UNL1        0.1500
      5 C         137.9719  139.6730  162.6506 C.3     1  UNL1        0.0383
      6 C         138.7368  140.2570  163.8011 C.ar    1  UNL1        0.0120
      7 S         139.1262  139.5363  165.0577 S.2     1  UNL1       -0.0911
      8 C         139.8768  140.4981  165.9303 C.ar    1  UNL1        0.0301
      9 C         139.9513  141.8134  165.2131 C.ar    1  UNL1        0.0112
     10 C         139.2468  141.6645  163.8972 C.ar    1  UNL1        0.0558
     11 C         140.4518  140.1975  167.2827 C.ar    1  UNL1        0.0166
     12 C         139.5975  140.3336  168.5081 C.ar    1  UNL1        0.0013
     13 C         140.1726  140.0329  169.8604 C.ar    1  UNL1        0.0001
     14 C         141.6019  139.5961  169.9874 C.ar    1  UNL1        0.0009
     15 C         142.4562  139.4599  168.7620 C.ar    1  UNL1        0.0114
     16 C         141.8812  139.7606  167.4096 C.ar    1  UNL1        0.0581
     17 CL        142.7355  139.6245  166.1842 Cl      1  UNL1       -0.0822
     18 C         140.0426  144.1205  160.8831 C.3     1  UNL1        0.1099
     19 C         139.6252  143.7559  159.4893 C.ar    1  UNL1       -0.0032
     20 C         140.1665  144.5228  158.3194 C.ar    1  UNL1       -0.0026
     21 C         139.7491  144.1582  156.9255 C.ar    1  UNL1       -0.0003
     22 C         138.7903  143.0265  156.7017 C.ar    1  UNL1       -0.0000
     23 C         138.2490  142.2596  157.8716 C.ar    1  UNL1       -0.0003
     24 C         138.6664  142.6243  159.2654 C.ar    1  UNL1       -0.0026
     25 C         140.2945  145.5556  161.2393 C.3     1  UNL1        0.0896
     26 N         139.1450  146.5120  161.3572 N.3     1  UNL1       -0.3195
     27 H         138.7113  146.6368  160.4425 H       1  UNL1        0.1189
     28 H         139.4846  147.4114  161.6980 H       1  UNL1        0.1189
@<TRIPOS>BOND
     1     5     6    1
     2     6     7   ar
     3     7     8   ar
     4     8    11    1
     5    11    12   ar
     6    12    13   ar
     7    13    14   ar
     8    14    15   ar
     9    15    16   ar
    10    16    17    1
    11     8     9   ar
    12     9    10   ar
    13    10     1    1
    14     1     2    2
    15     1     3   am
    16     3    18    1
    17    18    25    1
    18    25    26    1
    19    18    19    1
    20    19    20   ar
    21    20    21   ar
    22    21    22   ar
    23    22    23   ar
    24    23    24   ar
    25    10     6   ar
    26    24    19   ar
    27    16    11   ar
    28     3     4    1
    29    26    27    1
    30    26    28    1
@<TRIPOS>MOLECULE
*****
 28 30 0 0 0
SMALL
GASTEIGER

@<TRIPOS>ATOM
      1 C         143.0268  143.2899  162.6201 C.2     1  UNL1        0.2463
      2 O         144.1044  144.1331  163.2346 O.2     1  UNL1       -0.2701
      3 N         142.8941  141.8459  163.0038 N.am    1  UNL1       -0.2974
      4 H         142.1868  141.2924  162.6005 H       1  UNL1        0.1500
      5 C         140.8575  145.6544  163.2144 C.3     1  UNL1        0.0383
      6 C         141.0847  144.9775  161.8952 C.ar    1  UNL1        0.0120
      7 S         140.3547  145.2686  160.6176 S.2     1  UNL1       -0.0911
      8 C         140.9007  144.3616  159.5548 C.ar    1  UNL1        0.0301
      9 C         141.9681  143.5101  160.1756 C.ar    1  UNL1        0.0112
     10 C         142.0818  143.8906  161.6221 C.ar    1  UNL1        0.0558
     11 C         140.4570  144.3146  158.1226 C.ar    1  UNL1        0.0166
     12 C         139.3402  143.4009  157.7130 C.ar    1  UNL1        0.0013
     13 C         138.8966  143.3539  156.2809 C.ar    1  UNL1        0.0001
     14 C         139.5699  144.2206  155.2584 C.ar    1  UNL1        0.0009
     15 C         140.6867  145.1343  155.6680 C.ar    1  UNL1        0.0114
     16 C         141.1303  145.1813  157.1001 C.ar    1  UNL1        0.0581
     17 CL        142.2472  146.0950  157.5098 Cl      1  UNL1       -0.0822
     18 C         143.8390  141.2451  164.0019 C.3     1  UNL1        0.1099
     19 C         143.4237  141.1018  165.4361 C.ar    1  UNL1       -0.0032
     20 C         143.3437  142.3123  166.3182 C.ar    1  UNL1       -0.0026
     21 C         142.9283  142.1691  167.7525 C.ar    1  UNL1       -0.0003
     22 C         142.5929  140.8152  168.3044 C.ar    1  UNL1       -0.0000
     23 C         142.6729  139.6047  167.4223 C.ar    1  UNL1       -0.0003
     24 C         143.0883  139.7481  165.9880 C.ar    1  UNL1       -0.0026
     25 C         145.1993  140.7877  163.5657 C.3     1  UNL1        0.0896
     26 N         146.2647  141.7959  163.2518 N.3     1  UNL1       -0.3195
     27 H         145.9928  142.3326  162.4281 H       1  UNL1        0.1189
     28 H         147.1450  141.3145  163.0686 H       1  UNL1        0.1189
@<TRIPOS>BOND
     1     5     6    1
     2     6     7   ar
     3     7     8   ar
     4     8    11    1
     5    11    12   ar
     6    12    13   ar
     7    13    14   ar
     8    14    15   ar
     9    15    16   ar
    10    16    17    1
    11     8     9   ar
    12     9    10   ar
    13    10     1    1
    14     1     2    2
    15     1     3   am
    16     3    18    1
    17    18    25    1
    18    25    26    1
    19    18    19    1
    20    19    20   ar
    21    20    21   ar
    22    21    22   ar
    23    22    23   ar
    24    23    24   ar
    25    10     6   ar
    26    24    19   ar
    27    16    11   ar
    28     3     4    1
    29    26    27    1
    30    26    28    1
@<TRIPOS>MOLECULE
*****
 28 30 0 0 0
SMALL
GASTEIGER

@<TRIPOS>ATOM
      1 C         142.9347  136.9858  157.1320 C.2     1  UNL1        0.2463
      2 O         144.0316  137.4012  156.1969 O.2     1  UNL1       -0.2701
      3 N         142.1160  135.7652  156.8325 N.am    1  UNL1       -0.2974
      4 H         141.3961  135.4926  157.4462 H       1  UNL1        0.1500
      5 C         141.2716  139.7908  157.2582 C.3     1  UNL1        0.0383
      6 C         141.8921  139.0805  158.4245 C.ar    1  UNL1        0.0120
      7 S         141.8572  139.5347  159.8537 S.2     1  UNL1       -0.0911
      8 C         142.6000  138.5261  160.6789 C.ar    1  UNL1        0.0301
      9 C         143.0941  137.4486  159.7598 C.ar    1  UNL1        0.0112
     10 C         142.6566  137.7911  158.3665 C.ar    1  UNL1        0.0558
     11 C         142.8117  138.5848  162.1628 C.ar    1  UNL1        0.0166
     12 C         144.0645  139.1946  162.7182 C.ar    1  UNL1        0.0013
     13 C         144.2761  139.2533  164.2020 C.ar    1  UNL1        0.0001
     14 C         143.2348  138.7022  165.1304 C.ar    1  UNL1        0.0009
     15 C         141.9819  138.0925  164.5751 C.ar    1  UNL1        0.0114
     16 C         141.7704  138.0338  163.0913 C.ar    1  UNL1        0.0581
     17 CL        140.5174  137.4240  162.5358 Cl      1  UNL1       -0.0822
     18 C         142.3941  134.9599  155.5979 C.3     1  UNL1        0.1099
     19 C         143.1633  133.6760  155.6974 C.ar    1  UNL1       -0.0032
     20 C         144.0775  133.4378  156.8626 C.ar    1  UNL1       -0.0026
     21 C         144.8468  132.1538  156.9621 C.ar    1  UNL1       -0.0003
     22 C         144.7017  131.1082  155.8965 C.ar    1  UNL1       -0.0000
     23 C         143.7876  131.3464  154.7313 C.ar    1  UNL1       -0.0003
     24 C         143.0184  132.6304  154.6319 C.ar    1  UNL1       -0.0026
     25 C         141.9031  135.4385  154.2639 C.3     1  UNL1        0.0896
     26 N         142.5748  136.5976  153.5892 N.3     1  UNL1       -0.3195
     27 H         142.4266  137.4437  154.1393 H       1  UNL1        0.1189
     28 H         142.1797  136.7243  152.6575 H       1  UNL1        0.1189
@<TRIPOS>BOND
     1     5     6    1
     2     6     7   ar
     3     7     8   ar
     4     8    11    1
     5    11    12   ar
     6    12    13   ar
     7    13    14   ar
     8    14    15   ar
     9    15    16   ar
    10    16    17    1
    11     8     9   ar
    12     9    10   ar
    13    10     1    1
    14     1     2    2
    15     1     3   am
    16     3    18    1
    17    18    25    1
    18    25    26    1
    19    18    19    1
    20    19    20   ar
    21    20    21   ar
    22    21    22   ar
    23    22    23   ar
    24    23    24   ar
    25    10     6   ar
    26    24    19   ar
    27    16    11   ar
    28     3     4    1
    29    26    27    1
    30    26    28    1
