@<TRIPOS>MOLECULE
*****
 29 33 0 0 0
SMALL
GASTEIGER

@<TRIPOS>ATOM
      1 C         140.6379  140.0970  166.9139 C.3     1  UNL1        0.1806
      2 C         141.0477  140.4235  168.3193 C.3     1  UNL1        0.0484
      3 C         142.3965  139.8136  168.5623 C.3     1  UNL1        0.0058
      4 C         142.8201  139.1103  167.3069 C.3     1  UNL1        0.0198
      5 C         141.7332  139.2855  166.2882 C.3     1  UNL1        0.0978
      6 C         142.8064  140.1401  169.9678 C.3     1  UNL1        0.0079
      7 C         142.3828  140.8434  171.2231 C.3     1  UNL1        0.0645
      8 C         141.0340  141.4532  170.9802 C.2     1  UNL1        0.1504
      9 O         140.2354  142.2497  171.9691 O.2     1  UNL1       -0.2961
     10 C         140.6241  141.1268  169.5747 C.3     1  UNL1        0.0611
     11 C         141.7195  140.3152  168.9490 C.3     1  UNL1        0.0079
     12 N         141.7404  138.7441  164.8893 N.3     1  UNL1       -0.2697
     13 C         140.5002  138.1213  164.3199 C.3     1  UNL1        0.0722
     14 C         140.5072  137.5799  162.9210 C.3     1  UNL1        0.0187
     15 C         141.7543  137.6614  162.0915 C.3     1  UNL1        0.0183
     16 C         142.9944  138.2843  162.6609 C.3     1  UNL1        0.0670
     17 N         144.2415  138.3658  161.8314 N.3     1  UNL1       -0.3211
     18 C         142.9874  138.8256  164.0598 C.3     1  UNL1        0.0878
     19 H         144.9806  138.8152  162.3719 H       1  UNL1        0.1189
     20 H         144.0553  138.9120  160.9903 H       1  UNL1        0.1189
     21 O         139.3573  140.5097  166.2505 O.3     1  UNL1       -0.4778
     22 C         139.3105  144.0229  163.4387 C.ar    1  UNL1        0.0686
     23 C         140.3990  143.8965  164.4630 C.ar    1  UNL1        0.0134
     24 C         140.4146  142.7254  165.4002 C.ar    1  UNL1        0.0376
     25 C         139.3417  141.6808  165.3132 C.ar    1  UNL1        0.1385
     26 C         138.2532  141.8072  164.2890 C.ar    1  UNL1        0.0376
     27 C         138.2376  142.9783  163.3517 C.ar    1  UNL1        0.0134
     28 N         139.2793  146.3649  161.5643 N.1     1  UNL1       -0.1908
     29 C         139.2949  145.1940  162.5015 C.1     1  UNL1        0.1004
@<TRIPOS>BOND
     1    28    29    3
     2    29    22    1
     3    22    23   ar
     4    23    24   ar
     5    24    25   ar
     6    25    21    1
     7     1    21    1
     8     1     2    1
     9     2     3    1
    10     3     4    1
    11     4     5    1
    12     5    12    1
    13    12    13    1
    14    13    14    1
    15    14    15    1
    16    15    16    1
    17    16    17    1
    18    16    18    1
    19     3     6    1
    20     6     7    1
    21     7     8    1
    22     8     9    2
    23    10     8    1
    24    10    11    1
    25    25    26   ar
    26    26    27   ar
    27    27    22   ar
    28     5     1    1
    29    18    12    1
    30    11     6    1
    31     2    10    1
    32    17    19    1
    33    17    20    1
@<TRIPOS>MOLECULE
*****
 29 33 0 0 0
SMALL
GASTEIGER

@<TRIPOS>ATOM
      1 C         141.0193  141.1842  166.4960 C.3     1  UNL1        0.1806
      2 C         141.1612  141.5534  167.9428 C.3     1  UNL1        0.0484
      3 C         140.1056  140.8181  168.7144 C.3     1  UNL1        0.0058
      4 C         139.3114  139.9946  167.7443 C.3     1  UNL1        0.0198
      5 C         139.8761  140.2208  166.3733 C.3     1  UNL1        0.0978
      6 C         140.2475  141.1874  170.1614 C.3     1  UNL1        0.0079
      7 C         141.0416  142.0109  171.1315 C.3     1  UNL1        0.0645
      8 C         142.0971  142.7461  170.3599 C.2     1  UNL1        0.1504
      9 O         143.1157  143.6856  170.9343 O.2     1  UNL1       -0.2961
     10 C         141.9553  142.3770  168.9129 C.3     1  UNL1        0.0611
     11 C         140.8122  141.4136  168.7902 C.3     1  UNL1        0.0079
     12 N         139.3841  139.5938  165.1025 N.3     1  UNL1       -0.2697
     13 C         139.7761  138.1871  164.7596 C.3     1  UNL1        0.0722
     14 C         139.2842  137.5600  163.4889 C.3     1  UNL1        0.0187
     15 C         138.4002  138.3396  162.5611 C.3     1  UNL1        0.0183
     16 C         138.0082  139.7463  162.9040 C.3     1  UNL1        0.0670
     17 N         137.1242  140.5259  161.9762 N.3     1  UNL1       -0.3211
     18 C         138.5001  140.3734  164.1747 C.3     1  UNL1        0.0878
     19 H         136.9609  141.4554  162.3632 H       1  UNL1        0.1189
     20 H         136.2333  140.0412  161.8681 H       1  UNL1        0.1189
     21 O         141.8711  141.6897  165.3694 O.3     1  UNL1       -0.4778
     22 C         140.2996  144.8864  162.6195 C.ar    1  UNL1        0.0686
     23 C         139.8074  144.8055  164.0342 C.ar    1  UNL1        0.0134
     24 C         140.3313  143.7400  164.9508 C.ar    1  UNL1        0.0376
     25 C         141.3473  142.7552  164.4528 C.ar    1  UNL1        0.1385
     26 C         141.8394  142.8360  163.0382 C.ar    1  UNL1        0.0376
     27 C         141.3156  143.9016  162.1215 C.ar    1  UNL1        0.0134
     28 N         139.2519  147.0174  160.7863 N.1     1  UNL1       -0.1908
     29 C         139.7758  145.9519  161.7029 C.1     1  UNL1        0.1004
@<TRIPOS>BOND
     1    28    29    3
     2    29    22    1
     3    22    23   ar
     4    23    24   ar
     5    24    25   ar
     6    25    21    1
     7     1    21    1
     8     1     2    1
     9     2     3    1
    10     3     4    1
    11     4     5    1
    12     5    12    1
    13    12    13    1
    14    13    14    1
    15    14    15    1
    16    15    16    1
    17    16    17    1
    18    16    18    1
    19     3     6    1
    20     6     7    1
    21     7     8    1
    22     8     9    2
    23    10     8    1
    24    10    11    1
    25    25    26   ar
    26    26    27   ar
    27    27    22   ar
    28     5     1    1
    29    18    12    1
    30    11     6    1
    31     2    10    1
    32    17    19    1
    33    17    20    1
@<TRIPOS>MOLECULE
*****
 29 33 0 0 0
SMALL
GASTEIGER

@<TRIPOS>ATOM
      1 C         140.5148  140.5815  166.3104 C.3     1  UNL1        0.1806
      2 C         140.5418  139.5111  165.2600 C.3     1  UNL1        0.0484
      3 C         141.6796  138.5845  165.5716 C.3     1  UNL1        0.0058
      4 C         142.3557  139.0823  166.8146 C.3     1  UNL1        0.0198
      5 C         141.6359  140.3165  167.2712 C.3     1  UNL1        0.0978
      6 C         141.7066  137.5140  164.5212 C.3     1  UNL1        0.0079
      7 C         141.0305  137.0161  163.2782 C.3     1  UNL1        0.0645
      8 C         139.8928  137.9427  162.9666 C.2     1  UNL1        0.1504
      9 O         138.9479  137.8203  161.8080 O.2     1  UNL1       -0.2961
     10 C         139.8657  139.0132  164.0170 C.3     1  UNL1        0.0611
     11 C         140.9867  138.7482  164.9778 C.3     1  UNL1        0.0079
     12 N         141.9770  141.1411  168.4769 N.3     1  UNL1       -0.2697
     13 C         143.2760  141.8894  168.5305 C.3     1  UNL1        0.0722
     14 C         143.6173  142.7140  169.7362 C.3     1  UNL1        0.0187
     15 C         142.6596  142.7903  170.8881 C.3     1  UNL1        0.0183
     16 C         141.3607  142.0420  170.8345 C.3     1  UNL1        0.0670
     17 N         140.4030  142.1184  171.9864 N.3     1  UNL1       -0.3211
     18 C         141.0194  141.2174  169.6288 C.3     1  UNL1        0.0878
     19 H         139.5788  141.5535  171.7814 H       1  UNL1        0.1189
     20 H         140.1228  143.0883  172.1319 H       1  UNL1        0.1189
     21 O         139.5382  141.7175  166.3866 O.3     1  UNL1       -0.4778
     22 C         139.4367  144.8198  163.1284 C.ar    1  UNL1        0.0686
     23 C         138.1671  144.1543  163.5702 C.ar    1  UNL1        0.0134
     24 C         138.2009  143.1202  164.6563 C.ar    1  UNL1        0.0376
     25 C         139.5044  142.7516  165.3006 C.ar    1  UNL1        0.1385
     26 C         140.7740  143.4171  164.8588 C.ar    1  UNL1        0.0376
     27 C         140.7402  144.4512  163.7727 C.ar    1  UNL1        0.0134
     28 N         139.3690  146.8879  160.9564 N.1     1  UNL1       -0.1908
     29 C         139.4029  145.8539  162.0424 C.1     1  UNL1        0.1004
@<TRIPOS>BOND
     1    28    29    3
     2    29    22    1
     3    22    23   ar
     4    23    24   ar
     5    24    25   ar
     6    25    21    1
     7     1    21    1
     8     1     2    1
     9     2     3    1
    10     3     4    1
    11     4     5    1
    12     5    12    1
    13    12    13    1
    14    13    14    1
    15    14    15    1
    16    15    16    1
    17    16    17    1
    18    16    18    1
    19     3     6    1
    20     6     7    1
    21     7     8    1
    22     8     9    2
    23    10     8    1
    24    10    11    1
    25    25    26   ar
    26    26    27   ar
    27    27    22   ar
    28     5     1    1
    29    18    12    1
    30    11     6    1
    31     2    10    1
    32    17    19    1
    33    17    20    1
@<TRIPOS>MOLECULE
*****
 29 33 0 0 0
SMALL
GASTEIGER

@<TRIPOS>ATOM
      1 C         140.9195  140.3396  166.3557 C.3     1  UNL1        0.1806
      2 C         140.4949  140.1871  167.7862 C.3     1  UNL1        0.0484
      3 C         141.7305  140.1659  168.6366 C.3     1  UNL1        0.0058
      4 C         142.9185  140.3052  167.7316 C.3     1  UNL1        0.0198
      5 C         142.4174  140.4126  166.3219 C.3     1  UNL1        0.0978
      6 C         141.3059  140.0134  170.0672 C.3     1  UNL1        0.0079
      7 C         140.1179  139.8740  170.9722 C.3     1  UNL1        0.0645
      8 C         138.8824  139.8953  170.1218 C.2     1  UNL1        0.1504
      9 O         137.4703  139.7836  170.6154 O.2     1  UNL1       -0.2961
     10 C         139.3069  140.0477  168.6912 C.3     1  UNL1        0.0611
     11 C         140.8047  140.1207  168.6575 C.3     1  UNL1        0.0079
     12 N         143.2651  140.5660  165.0940 N.3     1  UNL1       -0.2697
     13 C         143.9890  141.8547  164.8387 C.3     1  UNL1        0.0722
     14 C         144.8367  142.0083  163.6108 C.3     1  UNL1        0.0187
     15 C         144.9605  140.8731  162.6382 C.3     1  UNL1        0.0183
     16 C         144.2366  139.5844  162.8934 C.3     1  UNL1        0.0670
     17 N         144.3603  138.4492  161.9208 N.3     1  UNL1       -0.3211
     18 C         143.3888  139.4308  164.1213 C.3     1  UNL1        0.0878
     19 H         143.8066  137.6581  162.2493 H       1  UNL1        0.1189
     20 H         145.3388  138.1714  161.8452 H       1  UNL1        0.1189
     21 O         140.0065  140.4072  165.1674 O.3     1  UNL1       -0.4778
     22 C         139.6596  144.2251  162.8109 C.ar    1  UNL1        0.0686
     23 C         139.0110  144.1142  164.1589 C.ar    1  UNL1        0.0134
     24 C         139.1266  142.8416  164.9444 C.ar    1  UNL1        0.0376
     25 C         139.8908  141.6798  164.3819 C.ar    1  UNL1        0.1385
     26 C         140.5394  141.7907  163.0340 C.ar    1  UNL1        0.0376
     27 C         140.4237  143.0634  162.2484 C.ar    1  UNL1        0.0134
     28 N         139.4283  146.7704  161.2399 N.1     1  UNL1       -0.1908
     29 C         139.5439  145.4978  162.0254 C.1     1  UNL1        0.1004
@<TRIPOS>BOND
     1    28    29    3
     2    29    22    1
     3    22    23   ar
     4    23    24   ar
     5    24    25   ar
     6    25    21    1
     7     1    21    1
     8     1     2    1
     9     2     3    1
    10     3     4    1
    11     4     5    1
    12     5    12    1
    13    12    13    1
    14    13    14    1
    15    14    15    1
    16    15    16    1
    17    16    17    1
    18    16    18    1
    19     3     6    1
    20     6     7    1
    21     7     8    1
    22     8     9    2
    23    10     8    1
    24    10    11    1
    25    25    26   ar
    26    26    27   ar
    27    27    22   ar
    28     5     1    1
    29    18    12    1
    30    11     6    1
    31     2    10    1
    32    17    19    1
    33    17    20    1
@<TRIPOS>MOLECULE
*****
 29 33 0 0 0
SMALL
GASTEIGER

@<TRIPOS>ATOM
      1 C         141.3937  140.3547  166.4184 C.3     1  UNL1        0.1806
      2 C         140.6560  140.6467  167.6913 C.3     1  UNL1        0.0484
      3 C         141.2089  141.9170  168.2664 C.3     1  UNL1        0.0058
      4 C         142.2883  142.4100  167.3489 C.3     1  UNL1        0.0198
      5 C         142.4026  141.4444  166.2068 C.3     1  UNL1        0.0978
      6 C         140.4711  142.2091  169.5394 C.3     1  UNL1        0.0079
      7 C         139.3917  141.7162  170.4569 C.3     1  UNL1        0.0645
      8 C         138.8389  140.4459  169.8818 C.2     1  UNL1        0.1504
      9 O         137.7410  139.6138  170.4754 O.2     1  UNL1       -0.2961
     10 C         139.5766  140.1538  168.6088 C.3     1  UNL1        0.0611
     11 C         140.5854  141.2435  168.3972 C.3     1  UNL1        0.0079
     12 N         143.3579  141.5499  165.0551 N.3     1  UNL1       -0.2697
     13 C         144.2694  140.4040  164.7295 C.3     1  UNL1        0.0722
     14 C         145.2247  140.5094  163.5779 C.3     1  UNL1        0.0187
     15 C         145.2685  141.7607  162.7519 C.3     1  UNL1        0.0183
     16 C         144.3570  142.9066  163.0775 C.3     1  UNL1        0.0670
     17 N         144.4008  144.1579  162.2515 N.3     1  UNL1       -0.3211
     18 C         143.4017  142.8012  164.2291 C.3     1  UNL1        0.0878
     19 H         143.7197  144.8267  162.6111 H       1  UNL1        0.1189
     20 H         144.1776  143.9332  161.2819 H       1  UNL1        0.1189
     21 O         141.1631  139.1792  165.5155 O.3     1  UNL1       -0.4778
     22 C         139.0057  139.7344  161.6056 C.ar    1  UNL1        0.0686
     23 C         138.2276  139.6365  162.8842 C.ar    1  UNL1        0.0134
     24 C         138.9467  139.4514  164.1875 C.ar    1  UNL1        0.0376
     25 C         140.4440  139.3643  164.2122 C.ar    1  UNL1        0.1385
     26 C         141.2221  139.4623  162.9336 C.ar    1  UNL1        0.0376
     27 C         140.5029  139.6474  161.6302 C.ar    1  UNL1        0.0134
     28 N         137.5674  140.1046  158.9990 N.1     1  UNL1       -0.1908
     29 C         138.2865  139.9195  160.3022 C.1     1  UNL1        0.1004
@<TRIPOS>BOND
     1    28    29    3
     2    29    22    1
     3    22    23   ar
     4    23    24   ar
     5    24    25   ar
     6    25    21    1
     7     1    21    1
     8     1     2    1
     9     2     3    1
    10     3     4    1
    11     4     5    1
    12     5    12    1
    13    12    13    1
    14    13    14    1
    15    14    15    1
    16    15    16    1
    17    16    17    1
    18    16    18    1
    19     3     6    1
    20     6     7    1
    21     7     8    1
    22     8     9    2
    23    10     8    1
    24    10    11    1
    25    25    26   ar
    26    26    27   ar
    27    27    22   ar
    28     5     1    1
    29    18    12    1
    30    11     6    1
    31     2    10    1
    32    17    19    1
    33    17    20    1
@<TRIPOS>MOLECULE
*****
 29 33 0 0 0
SMALL
GASTEIGER

@<TRIPOS>ATOM
      1 C         140.1605  141.9144  166.1644 C.3     1  UNL1        0.1806
      2 C         140.5505  141.3834  167.5119 C.3     1  UNL1        0.0484
      3 C         142.0155  141.6412  167.7054 C.3     1  UNL1        0.0058
      4 C         142.5308  142.3316  166.4774 C.3     1  UNL1        0.0198
      5 C         141.3844  142.5004  165.5251 C.3     1  UNL1        0.0978
      6 C         142.4056  141.1102  169.0530 C.3     1  UNL1        0.0079
      7 C         141.8903  140.4199  170.2810 C.3     1  UNL1        0.0645
      8 C         140.4254  140.1621  170.0875 C.2     1  UNL1        0.1504
      9 O         139.5110  139.4911  171.0692 O.2     1  UNL1       -0.2961
     10 C         140.0352  140.6931  168.7399 C.3     1  UNL1        0.0611
     11 C         141.2591  141.2791  168.1006 C.3     1  UNL1        0.0079
     12 N         141.4501  143.1425  164.1710 N.3     1  UNL1       -0.2697
     13 C         142.0503  142.3971  163.0160 C.3     1  UNL1        0.0722
     14 C         142.1161  143.0391  161.6619 C.3     1  UNL1        0.0187
     15 C         141.5816  144.4264  161.4629 C.3     1  UNL1        0.0183
     16 C         140.9813  145.1718  162.6179 C.3     1  UNL1        0.0670
     17 N         140.4468  146.5591  162.4189 N.3     1  UNL1       -0.3211
     18 C         140.9156  144.5298  163.9720 C.3     1  UNL1        0.0878
     19 H         140.0792  146.9118  163.3025 H       1  UNL1        0.1189
     20 H         139.7007  146.5395  161.7238 H       1  UNL1        0.1189
     21 O         138.7875  141.8677  165.5620 O.3     1  UNL1       -0.4778
     22 C         138.2694  140.7867  161.2245 C.ar    1  UNL1        0.0686
     23 C         138.8065  139.7732  162.1911 C.ar    1  UNL1        0.0134
     24 C         138.9793  140.1335  163.6369 C.ar    1  UNL1        0.0376
     25 C         138.6148  141.5073  164.1162 C.ar    1  UNL1        0.1385
     26 C         138.0776  142.5208  163.1496 C.ar    1  UNL1        0.0376
     27 C         137.9049  142.1605  161.7038 C.ar    1  UNL1        0.0134
     28 N         137.9240  140.0660  158.3330 N.1     1  UNL1       -0.1908
     29 C         138.0967  140.4263  159.7787 C.1     1  UNL1        0.1004
@<TRIPOS>BOND
     1    28    29    3
     2    29    22    1
     3    22    23   ar
     4    23    24   ar
     5    24    25   ar
     6    25    21    1
     7     1    21    1
     8     1     2    1
     9     2     3    1
    10     3     4    1
    11     4     5    1
    12     5    12    1
    13    12    13    1
    14    13    14    1
    15    14    15    1
    16    15    16    1
    17    16    17    1
    18    16    18    1
    19     3     6    1
    20     6     7    1
    21     7     8    1
    22     8     9    2
    23    10     8    1
    24    10    11    1
    25    25    26   ar
    26    26    27   ar
    27    27    22   ar
    28     5     1    1
    29    18    12    1
    30    11     6    1
    31     2    10    1
    32    17    19    1
    33    17    20    1
@<TRIPOS>MOLECULE
*****
 29 33 0 0 0
SMALL
GASTEIGER

@<TRIPOS>ATOM
      1 C         140.1914  139.7298  165.7278 C.3     1  UNL1        0.1806
      2 C         139.9596  140.1029  167.1620 C.3     1  UNL1        0.0484
      3 C         141.0065  141.1024  167.5559 C.3     1  UNL1        0.0058
      4 C         141.8853  141.3469  166.3651 C.3     1  UNL1        0.0198
      5 C         141.3815  140.4986  165.2353 C.3     1  UNL1        0.0978
      6 C         140.7748  141.4755  168.9902 C.3     1  UNL1        0.0079
      7 C         139.8960  141.2310  170.1810 C.3     1  UNL1        0.0645
      8 C         138.8492  140.2316  169.7871 C.2     1  UNL1        0.1504
      9 O         137.7615  139.6988  170.6721 O.2     1  UNL1       -0.2961
     10 C         139.0809  139.8584  168.3529 C.3     1  UNL1        0.0611
     11 C         140.2710  140.6272  167.8603 C.3     1  UNL1        0.0079
     12 N         141.9652  140.4309  163.8552 N.3     1  UNL1       -0.2697
     13 C         141.6113  141.4761  162.8392 C.3     1  UNL1        0.0722
     14 C         142.1950  141.4085  161.4590 C.3     1  UNL1        0.0187
     15 C         143.1325  140.2957  161.0950 C.3     1  UNL1        0.0183
     16 C         143.4864  139.2505  162.1110 C.3     1  UNL1        0.0670
     17 N         144.4240  138.1377  161.7469 N.3     1  UNL1       -0.3211
     18 C         142.9028  139.3181  163.4911 C.3     1  UNL1        0.0878
     19 H         144.5515  137.5236  162.5513 H       1  UNL1        0.1189
     20 H         145.3250  138.5286  161.4714 H       1  UNL1        0.1189
     21 O         139.3761  138.7583  164.9267 O.3     1  UNL1       -0.4778
     22 C         138.1899  139.7623  160.7035 C.ar    1  UNL1        0.0686
     23 C         139.0702  138.5783  160.9740 C.ar    1  UNL1        0.0134
     24 C         139.4656  138.2437  162.3817 C.ar    1  UNL1        0.0376
     25 C         138.9807  139.0930  163.5190 C.ar    1  UNL1        0.1385
     26 C         138.1004  140.2770  163.2486 C.ar    1  UNL1        0.0376
     27 C         137.7050  140.6117  161.8408 C.ar    1  UNL1        0.0134
     28 N         137.3990  140.4316  157.8882 N.1     1  UNL1       -0.1908
     29 C         137.7944  140.0970  159.2958 C.1     1  UNL1        0.1004
@<TRIPOS>BOND
     1    28    29    3
     2    29    22    1
     3    22    23   ar
     4    23    24   ar
     5    24    25   ar
     6    25    21    1
     7     1    21    1
     8     1     2    1
     9     2     3    1
    10     3     4    1
    11     4     5    1
    12     5    12    1
    13    12    13    1
    14    13    14    1
    15    14    15    1
    16    15    16    1
    17    16    17    1
    18    16    18    1
    19     3     6    1
    20     6     7    1
    21     7     8    1
    22     8     9    2
    23    10     8    1
    24    10    11    1
    25    25    26   ar
    26    26    27   ar
    27    27    22   ar
    28     5     1    1
    29    18    12    1
    30    11     6    1
    31     2    10    1
    32    17    19    1
    33    17    20    1
@<TRIPOS>MOLECULE
*****
 29 33 0 0 0
SMALL
GASTEIGER

@<TRIPOS>ATOM
      1 C         141.1893  141.1929  166.3240 C.3     1  UNL1        0.1806
      2 C         140.7764  141.0109  167.7545 C.3     1  UNL1        0.0484
      3 C         141.8888  141.5147  168.6257 C.3     1  UNL1        0.0058
      4 C         142.9892  142.0080  167.7335 C.3     1  UNL1        0.0198
      5 C         142.5569  141.8091  166.3111 C.3     1  UNL1        0.0978
      6 C         141.4759  141.3327  170.0562 C.3     1  UNL1        0.0079
      7 C         140.3756  140.8394  170.9484 C.3     1  UNL1        0.0645
      8 C         139.2633  140.3357  170.0772 C.2     1  UNL1        0.1504
      9 O         137.9659  139.7524  170.5531 O.2     1  UNL1       -0.2961
     10 C         139.6761  140.5176  168.6467 C.3     1  UNL1        0.0611
     11 C         141.0436  141.1338  168.6337 C.3     1  UNL1        0.0079
     12 N         143.3523  142.1641  165.0899 N.3     1  UNL1       -0.2697
     13 C         144.2500  141.1427  164.4566 C.3     1  UNL1        0.0722
     14 C         145.0455  141.4976  163.2354 C.3     1  UNL1        0.0187
     15 C         144.9433  142.8738  162.6475 C.3     1  UNL1        0.0183
     16 C         144.0456  143.8951  163.2808 C.3     1  UNL1        0.0670
     17 N         143.9434  145.2713  162.6929 N.3     1  UNL1       -0.3211
     18 C         143.2501  143.5403  164.5020 C.3     1  UNL1        0.0878
     19 H         143.2935  145.8299  163.2461 H       1  UNL1        0.1189
     20 H         143.6045  145.2067  161.7331 H       1  UNL1        0.1189
     21 O         140.3772  140.8235  165.1181 O.3     1  UNL1       -0.4778
     22 C         140.1542  143.6321  161.6092 C.ar    1  UNL1        0.0686
     23 C         140.8392  142.3054  161.4656 C.ar    1  UNL1        0.0134
     24 C         140.9135  141.3692  162.6353 C.ar    1  UNL1        0.0376
     25 C         140.3029  141.7597  163.9485 C.ar    1  UNL1        0.1385
     26 C         139.6178  143.0863  164.0921 C.ar    1  UNL1        0.0376
     27 C         139.5435  144.0225  162.9224 C.ar    1  UNL1        0.0134
     28 N         140.0054  145.5044  159.2700 N.1     1  UNL1       -0.1908
     29 C         140.0798  144.5682  160.4396 C.1     1  UNL1        0.1004
@<TRIPOS>BOND
     1    28    29    3
     2    29    22    1
     3    22    23   ar
     4    23    24   ar
     5    24    25   ar
     6    25    21    1
     7     1    21    1
     8     1     2    1
     9     2     3    1
    10     3     4    1
    11     4     5    1
    12     5    12    1
    13    12    13    1
    14    13    14    1
    15    14    15    1
    16    15    16    1
    17    16    17    1
    18    16    18    1
    19     3     6    1
    20     6     7    1
    21     7     8    1
    22     8     9    2
    23    10     8    1
    24    10    11    1
    25    25    26   ar
    26    26    27   ar
    27    27    22   ar
    28     5     1    1
    29    18    12    1
    30    11     6    1
    31     2    10    1
    32    17    19    1
    33    17    20    1
@<TRIPOS>MOLECULE
*****
 29 33 0 0 0
SMALL
GASTEIGER

@<TRIPOS>ATOM
      1 C         140.8067  142.2324  166.3905 C.3     1  UNL1        0.1806
      2 C         140.6168  141.4494  167.6557 C.3     1  UNL1        0.0484
      3 C         141.9626  140.9640  168.1067 C.3     1  UNL1        0.0058
      4 C         142.9841  141.4470  167.1202 C.3     1  UNL1        0.0198
      5 C         142.2698  142.2309  166.0595 C.3     1  UNL1        0.0978
      6 C         141.7728  140.1809  169.3719 C.3     1  UNL1        0.0079
      7 C         140.7513  139.6979  170.3584 C.3     1  UNL1        0.0645
      8 C         139.4056  140.1833  169.9074 C.2     1  UNL1        0.1504
      9 O         138.0993  139.9301  170.6000 O.2     1  UNL1       -0.2961
     10 C         139.5954  140.9664  168.6422 C.3     1  UNL1        0.0611
     11 C         141.0584  140.9649  168.3112 C.3     1  UNL1        0.0079
     12 N         142.9065  142.8966  164.8757 N.3     1  UNL1       -0.2697
     13 C         142.4513  144.2602  164.4474 C.3     1  UNL1        0.0722
     14 C         143.0880  144.9260  163.2636 C.3     1  UNL1        0.0187
     15 C         144.1798  144.2281  162.5081 C.3     1  UNL1        0.0183
     16 C         144.6350  142.8645  162.9364 C.3     1  UNL1        0.0670
     17 N         145.7269  142.1667  162.1809 N.3     1  UNL1       -0.3211
     18 C         143.9984  142.1988  164.1202 C.3     1  UNL1        0.0878
     19 H         145.9072  141.2574  162.6064 H       1  UNL1        0.1189
     20 H         146.5761  142.7310  162.2119 H       1  UNL1        0.1189
     21 O         139.7236  142.8998  165.5957 O.3     1  UNL1       -0.4778
     22 C         138.4658  141.1901  161.6277 C.ar    1  UNL1        0.0686
     23 C         138.2692  142.6498  161.9116 C.ar    1  UNL1        0.0134
     24 C         138.6885  143.2197  163.2343 C.ar    1  UNL1        0.0376
     25 C         139.3044  142.3299  164.2730 C.ar    1  UNL1        0.1385
     26 C         139.5009  140.8702  163.9891 C.ar    1  UNL1        0.0376
     27 C         139.0817  140.3003  162.6664 C.ar    1  UNL1        0.0134
     28 N         137.6272  140.0503  158.9824 N.1     1  UNL1       -0.1908
     29 C         138.0465  140.6202  160.3050 C.1     1  UNL1        0.1004
@<TRIPOS>BOND
     1    28    29    3
     2    29    22    1
     3    22    23   ar
     4    23    24   ar
     5    24    25   ar
     6    25    21    1
     7     1    21    1
     8     1     2    1
     9     2     3    1
    10     3     4    1
    11     4     5    1
    12     5    12    1
    13    12    13    1
    14    13    14    1
    15    14    15    1
    16    15    16    1
    17    16    17    1
    18    16    18    1
    19     3     6    1
    20     6     7    1
    21     7     8    1
    22     8     9    2
    23    10     8    1
    24    10    11    1
    25    25    26   ar
    26    26    27   ar
    27    27    22   ar
    28     5     1    1
    29    18    12    1
    30    11     6    1
    31     2    10    1
    32    17    19    1
    33    17    20    1
