@<TRIPOS>MOLECULE
*****
 42 48 0 0 0
SMALL
GASTEIGER

@<TRIPOS>ATOM
      1 C         141.2293  140.2171  159.8382 C.3     1  UNL1        0.1354
      2 N         141.7520  138.9752  159.1790 N.3     1  UNL1       -0.2823
      3 C         142.3973  139.0583  157.8275 C.3     1  UNL1        0.1166
      4 C         142.5198  140.3833  157.1351 C.3     1  UNL1        0.0511
      5 C         141.9971  141.6252  157.7942 C.2     1  UNL1       -0.0038
      6 C         141.3518  141.5420  159.1457 C.2     1  UNL1        0.0768
      7 N         140.9326  142.9258  159.5451 N.2     1  UNL1       -0.2520
      8 C         141.3188  143.8641  158.4403 C.2     1  UNL1        0.0627
      9 C         141.1565  145.3466  158.2800 C.3     1  UNL1        0.0717
     10 C         141.6520  146.0253  157.0375 C.2     1  UNL1       -0.0198
     11 C         142.3099  145.2214  155.9553 C.2     1  UNL1       -0.0042
     12 C         142.4722  143.7389  156.1157 C.2     1  UNL1        0.0006
     13 C         141.9767  143.0603  157.3582 C.2     1  UNL1        0.0111
     14 H         140.9631  138.3348  159.0898 H       1  UNL1        0.1245
     15 C         141.4464  137.1739  164.1478 C.3     1  UNL1        0.1537
     16 N         140.9832  137.8020  162.8668 N.ar    1  UNL1       -0.2476
     17 C         141.7028  138.8706  162.0982 C.ar    1  UNL1        0.0944
     18 C         140.8835  139.2009  160.8859 C.ar    1  UNL1        0.0407
     19 C         139.6577  138.3365  160.9052 C.ar    1  UNL1        0.1193
     20 N         139.7193  137.4720  162.1295 N.ar    1  UNL1       -0.1679
     21 C         140.5864  141.1061  160.8612 C.ar    1  UNL1        0.0810
     22 C         139.1055  141.3418  160.8253 C.ar    1  UNL1        0.0168
     23 C         138.4625  142.2308  161.8482 C.ar    1  UNL1        0.0040
     24 C         139.3006  142.8840  162.9069 C.ar    1  UNL1        0.0331
     25 C         140.7815  142.6483  162.9428 C.ar    1  UNL1        0.0996
     26 N         141.4244  141.7593  161.9198 N.ar    1  UNL1       -0.2461
     27 C         138.6577  143.7730  163.9299 C.2     1  UNL1        0.0744
     28 O         139.2495  145.1174  164.2332 O.co2   1  UNL1       -0.5445
     29 O         137.4229  143.3174  164.6496 O.co2   1  UNL1       -0.5445
     30 C         142.9201  137.8164  157.1683 C.ar    1  UNL1        0.1318
     31 N         142.5890  136.4060  157.5569 N.ar    1  UNL1       -0.2298
     32 C         143.3300  135.4848  156.6336 C.ar    1  UNL1        0.0996
     33 C         144.1190  136.3260  155.6745 C.ar    1  UNL1        0.0927
     34 N         143.8657  137.7670  156.0050 N.ar    1  UNL1       -0.3386
     35 H         144.2521  138.5439  155.5400 H       1  UNL1        0.1672
     36 C         143.2892  133.9856  156.6641 C.ar    1  UNL1        0.0193
     37 C         142.2400  133.2479  155.8862 C.ar    1  UNL1        0.0039
     38 C         142.1991  131.7488  155.9167 C.ar    1  UNL1        0.0297
     39 C         143.2074  130.9874  156.7251 C.ar    1  UNL1        0.1401
     40 F         143.1665  129.4882  156.7557 F       1  UNL1       -0.2042
     41 C         144.2565  131.7251  157.5031 C.ar    1  UNL1        0.0297
     42 C         144.2974  133.2242  157.4726 C.ar    1  UNL1        0.0039
@<TRIPOS>UNITY_ATOM_ATTR
28 1
charge -1
@<TRIPOS>BOND
     1    15    16    1
     2    16    17   ar
     3    17    18   ar
     4     1    18    1
     5     1    21    1
     6    21    22   ar
     7    22    23   ar
     8    23    24   ar
     9    24    27    1
    10    27    28   ar
    11    27    29   ar
    12    24    25   ar
    13    25    26   ar
    14     1     2    1
    15     2     3    1
    16     3    30    1
    17    30    31   ar
    18    31    32   ar
    19    32    36    1
    20    36    37   ar
    21    37    38   ar
    22    38    39   ar
    23    39    40    1
    24    39    41   ar
    25    41    42   ar
    26    32    33   ar
    27    33    34   ar
    28     3     4    1
    29     4     5    1
    30     5     6    2
    31     6     7    1
    32     7     8    2
    33     8     9    1
    34     9    10    1
    35    10    11    2
    36    11    12    1
    37    12    13    2
    38    18    19   ar
    39    19    20   ar
    40    20    16   ar
    41     6     1    1
    42    13     8    1
    43    26    21   ar
    44    34    30   ar
    45    13     5    1
    46    42    36   ar
    47     2    14    1
    48    34    35    1
@<TRIPOS>MOLECULE
*****
 42 48 0 0 0
SMALL
GASTEIGER

@<TRIPOS>ATOM
      1 C         142.7975  139.0610  158.8132 C.3     1  UNL1        0.1354
      2 N         142.2426  137.8233  158.1729 N.3     1  UNL1       -0.2823
      3 C         142.6755  137.4357  156.7900 C.3     1  UNL1        0.1166
      4 C         143.6635  138.2858  156.0475 C.3     1  UNL1        0.0511
      5 C         144.2185  139.5235  156.6878 C.2     1  UNL1       -0.0038
      6 C         143.7855  139.9111  158.0707 C.2     1  UNL1        0.0768
      7 N         144.4989  141.1773  158.4419 N.2     1  UNL1       -0.2520
      8 C         145.3728  141.5722  157.2885 C.2     1  UNL1        0.0627
      9 C         146.3040  142.7305  157.0853 C.3     1  UNL1        0.0717
     10 C         147.0618  142.8666  155.7980 C.2     1  UNL1       -0.0198
     11 C         146.8885  141.8445  154.7139 C.2     1  UNL1       -0.0042
     12 C         145.9573  140.6863  154.9171 C.2     1  UNL1        0.0006
     13 C         145.1995  140.5501  156.2044 C.2     1  UNL1        0.0111
     14 H         141.2293  137.9361  158.1434 H       1  UNL1        0.1245
     15 C         138.4945  138.1445  161.7330 C.3     1  UNL1        0.1537
     16 N         139.9155  138.1619  161.2525 N.ar    1  UNL1       -0.2476
     17 C         140.4130  138.8105  159.9948 C.ar    1  UNL1        0.0944
     18 C         141.8933  138.5832  159.9104 C.ar    1  UNL1        0.0407
     19 C         142.3106  137.7942  161.1160 C.ar    1  UNL1        0.1193
     20 N         141.0882  137.5338  161.9455 N.ar    1  UNL1       -0.1679
     21 C         143.0385  140.1329  159.8346 C.ar    1  UNL1        0.0810
     22 C         142.1746  141.3590  159.8531 C.ar    1  UNL1        0.0168
     23 C         142.4155  142.4308  160.8744 C.ar    1  UNL1        0.0040
     24 C         143.5203  142.2765  161.8772 C.ar    1  UNL1        0.0331
     25 C         144.3842  141.0504  161.8588 C.ar    1  UNL1        0.0996
     26 N         144.1432  139.9785  160.8374 N.ar    1  UNL1       -0.2461
     27 C         143.7613  143.3483  162.8986 C.2     1  UNL1        0.0744
     28 O         144.2369  144.7034  162.4659 O.co2   1  UNL1       -0.5445
     29 O         143.5266  143.0648  164.3528 O.co2   1  UNL1       -0.5445
     30 C         142.1206  136.1980  156.1496 C.ar    1  UNL1        0.1318
     31 N         142.5105  134.7865  156.4747 N.ar    1  UNL1       -0.2298
     32 C         141.7092  133.8706  155.5977 C.ar    1  UNL1        0.0996
     33 C         140.8240  134.7160  154.7307 C.ar    1  UNL1        0.0927
     34 N         141.0782  136.1544  155.0718 N.ar    1  UNL1       -0.3386
     35 H         140.6383  136.9332  154.6605 H       1  UNL1        0.1672
     36 C         141.7806  132.3723  155.5893 C.ar    1  UNL1        0.0193
     37 C         142.8234  131.6665  156.4044 C.ar    1  UNL1        0.0039
     38 C         142.8948  130.1683  156.3960 C.ar    1  UNL1        0.0297
     39 C         141.9234  129.3758  155.5725 C.ar    1  UNL1        0.1401
     40 F         141.9948  127.8775  155.5641 F       1  UNL1       -0.2042
     41 C         140.8806  130.0815  154.7574 C.ar    1  UNL1        0.0297
     42 C         140.8091  131.5798  154.7658 C.ar    1  UNL1        0.0039
@<TRIPOS>UNITY_ATOM_ATTR
28 1
charge -1
@<TRIPOS>BOND
     1    15    16    1
     2    16    17   ar
     3    17    18   ar
     4     1    18    1
     5     1    21    1
     6    21    22   ar
     7    22    23   ar
     8    23    24   ar
     9    24    27    1
    10    27    28   ar
    11    27    29   ar
    12    24    25   ar
    13    25    26   ar
    14     1     2    1
    15     2     3    1
    16     3    30    1
    17    30    31   ar
    18    31    32   ar
    19    32    36    1
    20    36    37   ar
    21    37    38   ar
    22    38    39   ar
    23    39    40    1
    24    39    41   ar
    25    41    42   ar
    26    32    33   ar
    27    33    34   ar
    28     3     4    1
    29     4     5    1
    30     5     6    2
    31     6     7    1
    32     7     8    2
    33     8     9    1
    34     9    10    1
    35    10    11    2
    36    11    12    1
    37    12    13    2
    38    18    19   ar
    39    19    20   ar
    40    20    16   ar
    41     6     1    1
    42    13     8    1
    43    26    21   ar
    44    34    30   ar
    45    13     5    1
    46    42    36   ar
    47     2    14    1
    48    34    35    1
@<TRIPOS>MOLECULE
*****
 42 48 0 0 0
SMALL
GASTEIGER

@<TRIPOS>ATOM
      1 C         142.6329  139.8404  160.1198 C.3     1  UNL1        0.1354
      2 N         142.6605  140.4542  161.4881 N.3     1  UNL1       -0.2823
      3 C         143.6146  141.5717  161.7897 C.3     1  UNL1        0.1166
      4 C         144.5410  142.0754  160.7229 C.3     1  UNL1        0.0511
      5 C         144.5134  141.4615  159.3546 C.2     1  UNL1       -0.0038
      6 C         143.5593  140.3440  159.0530 C.2     1  UNL1        0.0768
      7 N         143.7581  139.9382  157.6227 N.2     1  UNL1       -0.2520
      8 C         144.8350  140.8049  157.0403 C.2     1  UNL1        0.0627
      9 C         145.4508  140.8584  155.6736 C.3     1  UNL1        0.0717
     10 C         146.5335  141.8534  155.3773 C.2     1  UNL1       -0.0198
     11 C         147.0003  142.7948  156.4477 C.2     1  UNL1       -0.0042
     12 C         146.3845  142.7413  157.8143 C.2     1  UNL1        0.0006
     13 C         145.3018  141.7463  158.1106 C.2     1  UNL1        0.0111
     14 H         142.8712  139.7021  162.1441 H       1  UNL1        0.1245
     15 C         137.9255  138.1043  161.7653 C.3     1  UNL1        0.1537
     16 N         139.4047  138.2272  161.5488 N.ar    1  UNL1       -0.2476
     17 C         140.0921  139.2847  160.7367 C.ar    1  UNL1        0.0944
     18 C         141.5685  139.0253  160.7924 C.ar    1  UNL1        0.0407
     19 C         141.7935  137.8075  161.6390 C.ar    1  UNL1        0.1193
     20 N         140.4562  137.3143  162.1064 N.ar    1  UNL1       -0.1679
     21 C         142.2356  138.9434  158.9850 C.ar    1  UNL1        0.0810
     22 C         141.0849  139.3195  158.0994 C.ar    1  UNL1        0.0168
     23 C         140.6875  138.4226  156.9645 C.ar    1  UNL1        0.0040
     24 C         141.4410  137.1498  156.7154 C.ar    1  UNL1        0.0331
     25 C         142.5918  136.7737  157.6010 C.ar    1  UNL1        0.0996
     26 N         142.9890  137.6707  158.7359 N.ar    1  UNL1       -0.2461
     27 C         141.0438  136.2528  155.5806 C.2     1  UNL1        0.0744
     28 O         141.4670  134.8139  155.5784 O.co2   1  UNL1       -0.5445
     29 O         140.2232  136.7950  154.4480 O.co2   1  UNL1       -0.5445
     30 C         143.6422  142.1856  163.1581 C.ar    1  UNL1        0.1318
     31 N         142.8279  141.7455  164.3384 N.ar    1  UNL1       -0.2298
     32 C         143.1714  142.6352  165.4962 C.ar    1  UNL1        0.0996
     33 C         144.1979  143.6252  165.0314 C.ar    1  UNL1        0.0927
     34 N         144.4889  143.3474  163.5863 N.ar    1  UNL1       -0.3386
     35 H         145.1241  143.8408  163.0186 H       1  UNL1        0.1672
     36 C         142.5903  142.5499  166.8765 C.ar    1  UNL1        0.0193
     37 C         141.1024  142.5621  167.0659 C.ar    1  UNL1        0.0039
     38 C         140.5213  142.4768  168.4461 C.ar    1  UNL1        0.0297
     39 C         141.4281  142.3793  169.6369 C.ar    1  UNL1        0.1401
     40 F         140.8470  142.2939  171.0172 F       1  UNL1       -0.2042
     41 C         142.9161  142.3670  169.4475 C.ar    1  UNL1        0.0297
     42 C         143.4972  142.4524  168.0673 C.ar    1  UNL1        0.0039
@<TRIPOS>UNITY_ATOM_ATTR
28 1
charge -1
@<TRIPOS>BOND
     1    15    16    1
     2    16    17   ar
     3    17    18   ar
     4     1    18    1
     5     1    21    1
     6    21    22   ar
     7    22    23   ar
     8    23    24   ar
     9    24    27    1
    10    27    28   ar
    11    27    29   ar
    12    24    25   ar
    13    25    26   ar
    14     1     2    1
    15     2     3    1
    16     3    30    1
    17    30    31   ar
    18    31    32   ar
    19    32    36    1
    20    36    37   ar
    21    37    38   ar
    22    38    39   ar
    23    39    40    1
    24    39    41   ar
    25    41    42   ar
    26    32    33   ar
    27    33    34   ar
    28     3     4    1
    29     4     5    1
    30     5     6    2
    31     6     7    1
    32     7     8    2
    33     8     9    1
    34     9    10    1
    35    10    11    2
    36    11    12    1
    37    12    13    2
    38    18    19   ar
    39    19    20   ar
    40    20    16   ar
    41     6     1    1
    42    13     8    1
    43    26    21   ar
    44    34    30   ar
    45    13     5    1
    46    42    36   ar
    47     2    14    1
    48    34    35    1
@<TRIPOS>MOLECULE
*****
 42 48 0 0 0
SMALL
GASTEIGER

@<TRIPOS>ATOM
      1 C         140.5072  141.3407  160.1017 C.3     1  UNL1        0.1354
      2 N         140.8830  141.0487  161.5241 N.3     1  UNL1       -0.2823
      3 C         141.6601  139.8092  161.8552 C.3     1  UNL1        0.1166
      4 C         142.0614  138.8616  160.7638 C.3     1  UNL1        0.0511
      5 C         141.6856  139.1536  159.3413 C.2     1  UNL1       -0.0038
      6 C         140.9085  140.3932  159.0102 C.2     1  UNL1        0.0768
      7 N         140.6824  140.4162  157.5276 N.2     1  UNL1       -0.2520
      8 C         141.3198  139.1910  156.9423 C.2     1  UNL1        0.0627
      9 C         141.4157  138.6850  155.5335 C.3     1  UNL1        0.0717
     10 C         142.1316  137.3988  155.2457 C.2     1  UNL1       -0.0198
     11 C         142.7517  136.6184  156.3667 C.2     1  UNL1       -0.0042
     12 C         142.6558  137.1244  157.7755 C.2     1  UNL1        0.0006
     13 C         141.9398  138.4106  158.0633 C.2     1  UNL1        0.0111
     14 H         140.0131  141.0014  162.0547 H       1  UNL1        0.1245
     15 C         139.7896  146.2248  161.9757 C.3     1  UNL1        0.1537
     16 N         139.5725  144.7784  161.6423 N.ar    1  UNL1       -0.2476
     17 C         140.5192  143.8970  160.8826 C.ar    1  UNL1        0.0944
     18 C         139.9024  142.5335  160.7809 C.ar    1  UNL1        0.0407
     19 C         138.5746  142.5722  161.4777 C.ar    1  UNL1        0.1193
     20 N         138.3707  143.9596  162.0101 N.ar    1  UNL1       -0.1679
     21 C         139.9214  142.0469  158.9150 C.ar    1  UNL1        0.0810
     22 C         138.4932  141.8028  158.5269 C.ar    1  UNL1        0.0168
     23 C         137.9072  142.5090  157.3402 C.ar    1  UNL1        0.0040
     24 C         138.7496  143.4593  156.5418 C.ar    1  UNL1        0.0331
     25 C         140.1778  143.7034  156.9299 C.ar    1  UNL1        0.0996
     26 N         140.7636  142.9971  158.1166 N.ar    1  UNL1       -0.2461
     27 C         138.1638  144.1655  155.3552 C.2     1  UNL1        0.0744
     28 O         136.6752  144.2425  155.1878 O.co2   1  UNL1       -0.5445
     29 O         139.0667  144.7948  154.3359 O.co2   1  UNL1       -0.5445
     30 C         142.0359  139.5171  163.2778 C.ar    1  UNL1        0.1318
     31 N         141.2631  139.9281  164.4959 N.ar    1  UNL1       -0.2298
     32 C         142.0001  139.4278  165.7029 C.ar    1  UNL1        0.0996
     33 C         143.2282  138.7077  165.2306 C.ar    1  UNL1        0.0927
     34 N         143.2504  138.7629  163.7318 N.ar    1  UNL1       -0.3386
     35 H         143.9408  138.3726  163.1485 H       1  UNL1        0.1672
     36 C         141.5821  139.6149  167.1313 C.ar    1  UNL1        0.0193
     37 C         140.1863  140.0608  167.4521 C.ar    1  UNL1        0.0039
     38 C         139.7684  140.2478  168.8805 C.ar    1  UNL1        0.0297
     39 C         140.7462  139.9890  169.9881 C.ar    1  UNL1        0.1401
     40 F         140.3283  140.1760  171.4165 F       1  UNL1       -0.2042
     41 C         142.1420  139.5431  169.6673 C.ar    1  UNL1        0.0297
     42 C         142.5600  139.3560  168.2389 C.ar    1  UNL1        0.0039
@<TRIPOS>UNITY_ATOM_ATTR
28 1
charge -1
@<TRIPOS>BOND
     1    15    16    1
     2    16    17   ar
     3    17    18   ar
     4     1    18    1
     5     1    21    1
     6    21    22   ar
     7    22    23   ar
     8    23    24   ar
     9    24    27    1
    10    27    28   ar
    11    27    29   ar
    12    24    25   ar
    13    25    26   ar
    14     1     2    1
    15     2     3    1
    16     3    30    1
    17    30    31   ar
    18    31    32   ar
    19    32    36    1
    20    36    37   ar
    21    37    38   ar
    22    38    39   ar
    23    39    40    1
    24    39    41   ar
    25    41    42   ar
    26    32    33   ar
    27    33    34   ar
    28     3     4    1
    29     4     5    1
    30     5     6    2
    31     6     7    1
    32     7     8    2
    33     8     9    1
    34     9    10    1
    35    10    11    2
    36    11    12    1
    37    12    13    2
    38    18    19   ar
    39    19    20   ar
    40    20    16   ar
    41     6     1    1
    42    13     8    1
    43    26    21   ar
    44    34    30   ar
    45    13     5    1
    46    42    36   ar
    47     2    14    1
    48    34    35    1
@<TRIPOS>MOLECULE
*****
 42 48 0 0 0
SMALL
GASTEIGER

@<TRIPOS>ATOM
      1 C         141.8458  143.3328  159.7173 C.3     1  UNL1        0.1354
      2 N         142.1877  142.7668  161.0637 N.3     1  UNL1       -0.2823
      3 C         143.3271  141.8014  161.2040 C.3     1  UNL1        0.1166
      4 C         144.1246  141.4019  159.9980 C.3     1  UNL1        0.0511
      5 C         143.7826  141.9679  158.6516 C.2     1  UNL1       -0.0038
      6 C         142.6432  142.9333  158.5113 C.2     1  UNL1        0.0768
      7 N         142.5412  143.3230  157.0664 N.2     1  UNL1       -0.2520
      8 C         143.6176  142.5985  156.3137 C.2     1  UNL1        0.0627
      9 C         143.9982  142.5931  154.8629 C.3     1  UNL1        0.0717
     10 C         145.1461  141.7503  154.3917 C.2     1  UNL1       -0.0198
     11 C         145.9133  140.9128  155.3715 C.2     1  UNL1       -0.0042
     12 C         145.5327  140.9181  156.8224 C.2     1  UNL1        0.0006
     13 C         144.3849  141.7609  157.2935 C.2     1  UNL1        0.0111
     14 H         141.3530  142.2885  161.4027 H       1  UNL1        0.1245
     15 C         137.7535  144.1470  162.9533 C.3     1  UNL1        0.1537
     16 N         138.9229  144.3849  162.0444 N.ar    1  UNL1       -0.2476
     17 C         139.7422  143.3268  161.3665 C.ar    1  UNL1        0.0944
     18 C         140.8039  144.0105  160.5570 C.ar    1  UNL1        0.0407
     19 C         140.6408  145.4911  160.7346 C.ar    1  UNL1        0.1193
     20 N         139.4783  145.7224  161.6539 N.ar    1  UNL1       -0.1679
     21 C         141.1420  144.1341  158.6625 C.ar    1  UNL1        0.0810
     22 C         139.9029  143.5938  158.0124 C.ar    1  UNL1        0.0168
     23 C         139.1990  144.3950  156.9575 C.ar    1  UNL1        0.0040
     24 C         139.7344  145.7365  156.5529 C.ar    1  UNL1        0.0331
     25 C         140.9735  146.2769  157.2030 C.ar    1  UNL1        0.0996
     26 N         141.6772  145.4755  158.2579 N.ar    1  UNL1       -0.2461
     27 C         139.0306  146.5379  155.4981 C.2     1  UNL1        0.0744
     28 O         139.5868  147.8623  155.0666 O.co2   1  UNL1       -0.5445
     29 O         137.7705  146.0146  154.8748 O.co2   1  UNL1       -0.5445
     30 C         143.6691  141.2354  162.5505 C.ar    1  UNL1        0.1318
     31 N         142.9589  141.5323  163.8378 N.ar    1  UNL1       -0.2298
     32 C         143.6322  140.7536  164.9289 C.ar    1  UNL1        0.0996
     33 C         144.7585  139.9755  164.3157 C.ar    1  UNL1        0.0927
     34 N         144.7813  140.2733  162.8458 N.ar    1  UNL1       -0.3386
     35 H         145.4150  139.9023  162.1900 H       1  UNL1        0.1672
     36 C         143.2468  140.7531  166.3786 C.ar    1  UNL1        0.0193
     37 C         143.2209  142.0404  167.1481 C.ar    1  UNL1        0.0039
     38 C         142.8356  142.0400  168.5978 C.ar    1  UNL1        0.0297
     39 C         142.4760  140.7523  169.2778 C.ar    1  UNL1        0.1401
     40 F         142.0906  140.7518  170.7275 F       1  UNL1       -0.2042
     41 C         142.5019  139.4650  168.5082 C.ar    1  UNL1        0.0297
     42 C         142.8873  139.4654  167.0586 C.ar    1  UNL1        0.0039
@<TRIPOS>UNITY_ATOM_ATTR
28 1
charge -1
@<TRIPOS>BOND
     1    15    16    1
     2    16    17   ar
     3    17    18   ar
     4     1    18    1
     5     1    21    1
     6    21    22   ar
     7    22    23   ar
     8    23    24   ar
     9    24    27    1
    10    27    28   ar
    11    27    29   ar
    12    24    25   ar
    13    25    26   ar
    14     1     2    1
    15     2     3    1
    16     3    30    1
    17    30    31   ar
    18    31    32   ar
    19    32    36    1
    20    36    37   ar
    21    37    38   ar
    22    38    39   ar
    23    39    40    1
    24    39    41   ar
    25    41    42   ar
    26    32    33   ar
    27    33    34   ar
    28     3     4    1
    29     4     5    1
    30     5     6    2
    31     6     7    1
    32     7     8    2
    33     8     9    1
    34     9    10    1
    35    10    11    2
    36    11    12    1
    37    12    13    2
    38    18    19   ar
    39    19    20   ar
    40    20    16   ar
    41     6     1    1
    42    13     8    1
    43    26    21   ar
    44    34    30   ar
    45    13     5    1
    46    42    36   ar
    47     2    14    1
    48    34    35    1
@<TRIPOS>MOLECULE
*****
 42 48 0 0 0
SMALL
GASTEIGER

@<TRIPOS>ATOM
      1 C         140.6487  139.5217  159.1606 C.3     1  UNL1        0.1354
      2 N         141.5630  138.4504  158.6445 N.3     1  UNL1       -0.2823
      3 C         141.5760  138.1158  157.1823 C.3     1  UNL1        0.1166
      4 C         140.6748  138.8526  156.2363 C.3     1  UNL1        0.0511
      5 C         139.7605  139.9239  156.7524 C.2     1  UNL1       -0.0038
      6 C         139.7475  140.2585  158.2146 C.2     1  UNL1        0.0768
      7 N         138.7466  141.3547  158.4303 N.2     1  UNL1       -0.2520
      8 C         138.1410  141.6976  157.1015 C.2     1  UNL1        0.0627
      9 C         137.1000  142.7008  156.7019 C.3     1  UNL1        0.0717
     10 C         136.6856  142.8198  155.2652 C.2     1  UNL1       -0.0198
     11 C         137.3123  141.9355  154.2282 C.2     1  UNL1       -0.0042
     12 C         138.3533  140.9323  154.6278 C.2     1  UNL1        0.0006
     13 C         138.7677  140.8134  156.0645 C.2     1  UNL1        0.0111
     14 H         141.3211  137.5926  159.1407 H       1  UNL1        0.1245
     15 C         144.1259  139.1221  163.1142 C.3     1  UNL1        0.1537
     16 N         142.9107  138.9233  162.2575 N.ar    1  UNL1       -0.2476
     17 C         142.6361  139.5987  160.9465 C.ar    1  UNL1        0.0944
     18 C         141.3124  139.1070  160.4402 C.ar    1  UNL1        0.0407
     19 C         140.7691  138.1278  161.4382 C.ar    1  UNL1        0.1193
     20 N         141.7569  138.0142  162.5613 N.ar    1  UNL1       -0.1679
     21 C         139.9649  140.4490  160.1211 C.ar    1  UNL1        0.0810
     22 C         140.5620  141.7921  160.4205 C.ar    1  UNL1        0.0168
     23 C         139.8782  142.7196  161.3810 C.ar    1  UNL1        0.0040
     24 C         138.5976  142.3038  162.0420 C.ar    1  UNL1        0.0331
     25 C         138.0005  140.9607  161.7426 C.ar    1  UNL1        0.0996
     26 N         138.6843  140.0333  160.7821 N.ar    1  UNL1       -0.2461
     27 C         137.9138  143.2311  163.0025 C.2     1  UNL1        0.0744
     28 O         137.7182  144.6738  162.6417 O.co2   1  UNL1       -0.5445
     29 O         137.4255  142.7156  164.3239 O.co2   1  UNL1       -0.5445
     30 C         142.4903  137.0445  156.6661 C.ar    1  UNL1        0.1318
     31 N         142.4994  135.6087  157.1003 N.ar    1  UNL1       -0.2298
     32 C         143.5706  134.8977  156.3277 C.ar    1  UNL1        0.0996
     33 C         144.2236  135.8940  155.4161 C.ar    1  UNL1        0.0927
     34 N         143.5559  137.2208  155.6253 N.ar    1  UNL1       -0.3386
     35 H         143.7780  138.0600  155.1610 H       1  UNL1        0.1672
     36 C         143.9265  133.4453  156.4460 C.ar    1  UNL1        0.0193
     37 C         143.6524  132.5107  155.3052 C.ar    1  UNL1        0.0039
     38 C         144.0082  131.0583  155.4234 C.ar    1  UNL1        0.0297
     39 C         144.6381  130.5406  156.6824 C.ar    1  UNL1        0.1401
     40 F         144.9939  129.0881  156.8007 F       1  UNL1       -0.2042
     41 C         144.9122  131.4752  157.8232 C.ar    1  UNL1        0.0297
     42 C         144.5564  132.9275  157.7050 C.ar    1  UNL1        0.0039
@<TRIPOS>UNITY_ATOM_ATTR
28 1
charge -1
@<TRIPOS>BOND
     1    15    16    1
     2    16    17   ar
     3    17    18   ar
     4     1    18    1
     5     1    21    1
     6    21    22   ar
     7    22    23   ar
     8    23    24   ar
     9    24    27    1
    10    27    28   ar
    11    27    29   ar
    12    24    25   ar
    13    25    26   ar
    14     1     2    1
    15     2     3    1
    16     3    30    1
    17    30    31   ar
    18    31    32   ar
    19    32    36    1
    20    36    37   ar
    21    37    38   ar
    22    38    39   ar
    23    39    40    1
    24    39    41   ar
    25    41    42   ar
    26    32    33   ar
    27    33    34   ar
    28     3     4    1
    29     4     5    1
    30     5     6    2
    31     6     7    1
    32     7     8    2
    33     8     9    1
    34     9    10    1
    35    10    11    2
    36    11    12    1
    37    12    13    2
    38    18    19   ar
    39    19    20   ar
    40    20    16   ar
    41     6     1    1
    42    13     8    1
    43    26    21   ar
    44    34    30   ar
    45    13     5    1
    46    42    36   ar
    47     2    14    1
    48    34    35    1
@<TRIPOS>MOLECULE
*****
 42 48 0 0 0
SMALL
GASTEIGER

@<TRIPOS>ATOM
      1 C         141.9162  140.5521  159.1335 C.3     1  UNL1        0.1354
      2 N         142.4126  139.5925  158.0930 N.3     1  UNL1       -0.2823
      3 C         142.5823  138.1410  158.4313 C.3     1  UNL1        0.1166
      4 C         142.2556  137.6491  159.8102 C.3     1  UNL1        0.0511
      5 C         141.7592  138.6087  160.8508 C.2     1  UNL1       -0.0038
      6 C         141.5895  140.0602  160.5124 C.2     1  UNL1        0.0768
      7 N         141.0852  140.7654  161.7364 N.2     1  UNL1       -0.2520
      8 C         140.9431  139.7499  162.8312 C.2     1  UNL1        0.0627
      9 C         140.4883  139.8667  164.2558 C.3     1  UNL1        0.0717
     10 C         140.4501  138.6506  165.1329 C.2     1  UNL1       -0.0198
     11 C         140.8666  137.3176  164.5856 C.2     1  UNL1       -0.0042
     12 C         141.3215  137.2008  163.1610 C.2     1  UNL1        0.0006
     13 C         141.3597  138.4169  162.2838 C.2     1  UNL1        0.0111
     14 H         143.3251  139.9329  157.7899 H       1  UNL1        0.1245
     15 C         140.9043  143.6084  154.9484 C.3     1  UNL1        0.1537
     16 N         141.6266  142.8953  156.0528 N.ar    1  UNL1       -0.2476
     17 C         141.0052  141.9786  157.0647 C.ar    1  UNL1        0.0944
     18 C         142.0916  141.4904  157.9766 C.ar    1  UNL1        0.0407
     19 C         143.3843  142.1052  157.5282 C.ar    1  UNL1        0.1193
     20 N         143.0968  142.9735  156.3392 N.ar    1  UNL1       -0.1679
     21 C         141.4807  141.8375  159.7724 C.ar    1  UNL1        0.0810
     22 C         142.5005  142.7608  160.3704 C.ar    1  UNL1        0.0168
     23 C         142.0651  144.0463  161.0093 C.ar    1  UNL1        0.0040
     24 C         140.6101  144.4083  161.0500 C.ar    1  UNL1        0.0331
     25 C         139.5903  143.4850  160.4520 C.ar    1  UNL1        0.0996
     26 N         140.0258  142.1996  159.8131 N.ar    1  UNL1       -0.2461
     27 C         140.1746  145.6938  161.6888 C.2     1  UNL1        0.0744
     28 O         139.1530  146.5590  161.0126 O.co2   1  UNL1       -0.5445
     29 O         140.7609  146.1139  163.0041 O.co2   1  UNL1       -0.5445
     30 C         143.0786  137.1814  157.3907 C.ar    1  UNL1        0.1318
     31 N         142.9921  135.6855  157.4581 N.ar    1  UNL1       -0.2298
     32 C         143.6086  135.1287  156.2091 C.ar    1  UNL1        0.0996
     33 C         144.0762  136.2807  155.3698 C.ar    1  UNL1        0.0927
     34 N         143.7487  137.5493  156.1001 N.ar    1  UNL1       -0.3386
     35 H         143.9399  138.4630  155.7872 H       1  UNL1        0.1672
     36 C         143.7353  133.6752  155.8606 C.ar    1  UNL1        0.0193
     37 C         143.0306  133.1290  154.6544 C.ar    1  UNL1        0.0039
     38 C         143.1572  131.6756  154.3059 C.ar    1  UNL1        0.0297
     39 C         143.9886  130.7684  155.1636 C.ar    1  UNL1        0.1401
     40 F         144.1153  129.3149  154.8151 F       1  UNL1       -0.2042
     41 C         144.6934  131.3147  156.3698 C.ar    1  UNL1        0.0297
     42 C         144.5668  132.7681  156.7183 C.ar    1  UNL1        0.0039
@<TRIPOS>UNITY_ATOM_ATTR
28 1
charge -1
@<TRIPOS>BOND
     1    15    16    1
     2    16    17   ar
     3    17    18   ar
     4     1    18    1
     5     1    21    1
     6    21    22   ar
     7    22    23   ar
     8    23    24   ar
     9    24    27    1
    10    27    28   ar
    11    27    29   ar
    12    24    25   ar
    13    25    26   ar
    14     1     2    1
    15     2     3    1
    16     3    30    1
    17    30    31   ar
    18    31    32   ar
    19    32    36    1
    20    36    37   ar
    21    37    38   ar
    22    38    39   ar
    23    39    40    1
    24    39    41   ar
    25    41    42   ar
    26    32    33   ar
    27    33    34   ar
    28     3     4    1
    29     4     5    1
    30     5     6    2
    31     6     7    1
    32     7     8    2
    33     8     9    1
    34     9    10    1
    35    10    11    2
    36    11    12    1
    37    12    13    2
    38    18    19   ar
    39    19    20   ar
    40    20    16   ar
    41     6     1    1
    42    13     8    1
    43    26    21   ar
    44    34    30   ar
    45    13     5    1
    46    42    36   ar
    47     2    14    1
    48    34    35    1
@<TRIPOS>MOLECULE
*****
 42 48 0 0 0
SMALL
GASTEIGER

@<TRIPOS>ATOM
      1 C         140.3299  141.5580  158.8479 C.3     1  UNL1        0.1354
      2 N         138.9621  141.4612  158.2400 N.3     1  UNL1       -0.2823
      3 C         138.8065  141.0575  156.8038 C.3     1  UNL1        0.1166
      4 C         140.0188  140.7506  155.9754 C.3     1  UNL1        0.0511
      5 C         141.3867  140.8474  156.5833 C.2     1  UNL1       -0.0038
      6 C         141.5422  141.2511  158.0195 C.2     1  UNL1        0.0768
      7 N         143.0071  141.2605  158.3422 N.2     1  UNL1       -0.2520
      8 C         143.7568  140.8626  157.1055 C.2     1  UNL1        0.0627
      9 C         145.2220  140.6998  156.8288 C.3     1  UNL1        0.0717
     10 C         145.6857  140.2817  155.4649 C.2     1  UNL1       -0.0198
     11 C         144.6842  140.0264  154.3778 C.2     1  UNL1       -0.0042
     12 C         143.2190  140.1892  154.6545 C.2     1  UNL1        0.0006
     13 C         142.7553  140.6073  156.0184 C.2     1  UNL1        0.0111
     14 H         138.5316  142.3809  158.3357 H       1  UNL1        0.1245
     15 C         137.3160  141.2787  163.1744 C.3     1  UNL1        0.1537
     16 N         138.1063  141.8169  162.0186 N.ar    1  UNL1       -0.2476
     17 C         138.8446  141.0008  160.9993 C.ar    1  UNL1        0.0944
     18 C         139.4916  141.9452  160.0299 C.ar    1  UNL1        0.0407
     19 C         139.1532  143.3448  160.4502 C.ar    1  UNL1        0.1193
     20 N         138.2969  143.2655  161.6793 N.ar    1  UNL1       -0.1679
     21 C         141.4068  141.7893  159.8663 C.ar    1  UNL1        0.0810
     22 C         142.0537  143.1378  159.9804 C.ar    1  UNL1        0.0168
     23 C         143.1305  143.3692  160.9988 C.ar    1  UNL1        0.0040
     24 C         143.5603  142.2521  161.9029 C.ar    1  UNL1        0.0331
     25 C         142.9133  140.9036  161.7887 C.ar    1  UNL1        0.0996
     26 N         141.8365  140.6723  160.7703 N.ar    1  UNL1       -0.2461
     27 C         144.6371  142.4834  162.9213 C.2     1  UNL1        0.0744
     28 O         145.9223  141.7142  162.8418 O.co2   1  UNL1       -0.5445
     29 O         144.4285  143.4840  164.0192 O.co2   1  UNL1       -0.5445
     30 C         137.4386  140.9606  156.1959 C.ar    1  UNL1        0.1318
     31 N         136.1666  140.6581  156.9310 N.ar    1  UNL1       -0.2298
     32 C         135.0444  140.6598  155.9356 C.ar    1  UNL1        0.0996
     33 C         135.6229  140.9633  154.5854 C.ar    1  UNL1        0.0927
     34 N         137.1026  141.1493  154.7462 N.ar    1  UNL1       -0.3386
     35 H         137.7412  141.3584  154.0267 H       1  UNL1        0.1672
     36 C         133.5976  140.4030  156.2375 C.ar    1  UNL1        0.0193
     37 C         133.2135  139.3212  157.2031 C.ar    1  UNL1        0.0039
     38 C         131.7669  139.0644  157.5050 C.ar    1  UNL1        0.0297
     39 C         130.7043  139.8893  156.8414 C.ar    1  UNL1        0.1401
     40 F         129.2576  139.6325  157.1433 F       1  UNL1       -0.2042
     41 C         131.0884  140.9710  155.8758 C.ar    1  UNL1        0.0297
     42 C         132.5351  141.2278  155.5738 C.ar    1  UNL1        0.0039
@<TRIPOS>UNITY_ATOM_ATTR
28 1
charge -1
@<TRIPOS>BOND
     1    15    16    1
     2    16    17   ar
     3    17    18   ar
     4     1    18    1
     5     1    21    1
     6    21    22   ar
     7    22    23   ar
     8    23    24   ar
     9    24    27    1
    10    27    28   ar
    11    27    29   ar
    12    24    25   ar
    13    25    26   ar
    14     1     2    1
    15     2     3    1
    16     3    30    1
    17    30    31   ar
    18    31    32   ar
    19    32    36    1
    20    36    37   ar
    21    37    38   ar
    22    38    39   ar
    23    39    40    1
    24    39    41   ar
    25    41    42   ar
    26    32    33   ar
    27    33    34   ar
    28     3     4    1
    29     4     5    1
    30     5     6    2
    31     6     7    1
    32     7     8    2
    33     8     9    1
    34     9    10    1
    35    10    11    2
    36    11    12    1
    37    12    13    2
    38    18    19   ar
    39    19    20   ar
    40    20    16   ar
    41     6     1    1
    42    13     8    1
    43    26    21   ar
    44    34    30   ar
    45    13     5    1
    46    42    36   ar
    47     2    14    1
    48    34    35    1
@<TRIPOS>MOLECULE
*****
 42 48 0 0 0
SMALL
GASTEIGER

@<TRIPOS>ATOM
      1 C         141.9745  141.0725  159.3790 C.3     1  UNL1        0.1354
      2 N         141.8227  140.6257  160.8028 N.3     1  UNL1       -0.2823
      3 C         141.8468  139.1636  161.1367 C.3     1  UNL1        0.1166
      4 C         142.0226  138.1482  160.0467 C.3     1  UNL1        0.0511
      5 C         142.1743  138.5949  158.6228 C.2     1  UNL1       -0.0038
      6 C         142.1503  140.0571  158.2890 C.2     1  UNL1        0.0768
      7 N         142.3227  140.1967  156.8055 N.2     1  UNL1       -0.2520
      8 C         142.4533  138.8208  156.2225 C.2     1  UNL1        0.0627
      9 C         142.6439  138.3415  154.8140 C.3     1  UNL1        0.0717
     10 C         142.7427  136.8722  154.5287 C.2     1  UNL1       -0.0198
     11 C         142.6510  135.8822  155.6519 C.2     1  UNL1       -0.0042
     12 C         142.4604  136.3616  157.0604 C.2     1  UNL1        0.0006
     13 C         142.3616  137.8308  157.3457 C.2     1  UNL1        0.0111
     14 H         140.9277  140.9881  161.1313 H       1  UNL1        0.1245
     15 C         139.8820  145.3748  161.6133 C.3     1  UNL1        0.1537
     16 N         140.8728  144.3812  161.0831 N.ar    1  UNL1       -0.2476
     17 C         140.5444  143.0714  160.4298 C.ar    1  UNL1        0.0944
     18 C         141.8346  142.4036  160.0561 C.ar    1  UNL1        0.0407
     19 C         142.9602  143.3007  160.4784 C.ar    1  UNL1        0.1193
     20 N         142.3657  144.5229  161.1131 N.ar    1  UNL1       -0.1679
     21 C         142.0777  141.9816  158.1902 C.ar    1  UNL1        0.0810
     22 C         140.8337  142.4603  157.5022 C.ar    1  UNL1        0.0168
     23 C         140.9368  143.3694  156.3134 C.ar    1  UNL1        0.0040
     24 C         142.2838  143.7995  155.8128 C.ar    1  UNL1        0.0331
     25 C         143.5277  143.3207  156.5009 C.ar    1  UNL1        0.0996
     26 N         143.4245  142.4117  157.6897 N.ar    1  UNL1       -0.2461
     27 C         142.3869  144.7086  154.6241 C.2     1  UNL1        0.0744
     28 O         141.2607  145.6427  154.2943 O.co2   1  UNL1       -0.5445
     29 O         143.6165  144.6834  153.7652 O.co2   1  UNL1       -0.5445
     30 C         141.6950  138.7167  162.5606 C.ar    1  UNL1        0.1318
     31 N         141.6234  139.6114  163.7624 N.ar    1  UNL1       -0.2298
     32 C         141.4724  138.7445  164.9772 C.ar    1  UNL1        0.0996
     33 C         141.4506  137.3141  164.5261 C.ar    1  UNL1        0.0927
     34 N         141.5882  137.2970  163.0325 N.ar    1  UNL1       -0.3386
     35 H         141.6054  136.4947  162.4621 H       1  UNL1        0.1672
     36 C         141.3624  139.2238  166.3943 C.ar    1  UNL1        0.0193
     37 C         142.5702  139.2181  167.2839 C.ar    1  UNL1        0.0039
     38 C         142.4603  139.6974  168.7009 C.ar    1  UNL1        0.0297
     39 C         141.1425  140.1825  169.2285 C.ar    1  UNL1        0.1401
     40 F         141.0326  140.6618  170.6456 F       1  UNL1       -0.2042
     41 C         139.9348  140.1882  168.3389 C.ar    1  UNL1        0.0297
     42 C         140.0447  139.7088  166.9219 C.ar    1  UNL1        0.0039
@<TRIPOS>UNITY_ATOM_ATTR
28 1
charge -1
@<TRIPOS>BOND
     1    15    16    1
     2    16    17   ar
     3    17    18   ar
     4     1    18    1
     5     1    21    1
     6    21    22   ar
     7    22    23   ar
     8    23    24   ar
     9    24    27    1
    10    27    28   ar
    11    27    29   ar
    12    24    25   ar
    13    25    26   ar
    14     1     2    1
    15     2     3    1
    16     3    30    1
    17    30    31   ar
    18    31    32   ar
    19    32    36    1
    20    36    37   ar
    21    37    38   ar
    22    38    39   ar
    23    39    40    1
    24    39    41   ar
    25    41    42   ar
    26    32    33   ar
    27    33    34   ar
    28     3     4    1
    29     4     5    1
    30     5     6    2
    31     6     7    1
    32     7     8    2
    33     8     9    1
    34     9    10    1
    35    10    11    2
    36    11    12    1
    37    12    13    2
    38    18    19   ar
    39    19    20   ar
    40    20    16   ar
    41     6     1    1
    42    13     8    1
    43    26    21   ar
    44    34    30   ar
    45    13     5    1
    46    42    36   ar
    47     2    14    1
    48    34    35    1
