@<TRIPOS>MOLECULE
*****
 33 37 0 0 0
SMALL
GASTEIGER

@<TRIPOS>ATOM
      1 C         140.4918  142.7928  165.9782 C.3     1  UNL1        0.0325
      2 C         141.6465  142.4262  165.0937 C.ar    1  UNL1       -0.0058
      3 C         142.8269  141.6979  165.6647 C.ar    1  UNL1       -0.0003
      4 C         143.9816  141.3313  164.7803 C.ar    1  UNL1       -0.0000
      5 C         143.9559  141.6930  163.3248 C.ar    1  UNL1        0.0045
      6 C         142.7755  142.4213  162.7537 C.ar    1  UNL1        0.0518
      7 C         142.7497  142.7831  161.2982 C.ar    1  UNL1        0.1704
      8 O         143.7344  142.5554  160.1898 O.2     1  UNL1       -0.4368
      9 C         143.1625  143.1430  158.9338 C.ar    1  UNL1        0.2217
     10 N         141.8244  143.7338  159.2659 N.ar    1  UNL1       -0.2060
     11 C         141.5692  143.5114  160.7272 C.ar    1  UNL1        0.1744
     12 C         140.4145  143.8780  161.6117 C.ar    1  UNL1        0.2816
     13 O         139.2341  144.6064  161.0407 O.2     1  UNL1       -0.2652
     14 N         140.4403  143.5163  163.0672 N.ar    1  UNL1       -0.2963
     15 C         141.6207  142.7880  163.6382 C.ar    1  UNL1        0.0614
     16 C         142.8527  141.3361  167.1202 C.ar    1  UNL1        0.0295
     17 C         143.3042  142.3437  168.1356 C.ar    1  UNL1        0.0331
     18 C         143.3299  141.9818  169.5911 C.ar    1  UNL1        0.1530
     19 F         143.7814  142.9894  170.6065 F       1  UNL1       -0.2029
     20 C         142.9042  140.6125  170.0312 C.ar    1  UNL1        0.0716
     21 N         142.9300  140.2507  171.4867 N.pl3   1  UNL1       -0.3552
     22 C         142.4528  139.6049  169.0158 C.ar    1  UNL1        0.0460
     23 C         142.4270  139.9668  167.5603 C.ar    1  UNL1        0.1414
     24 F         141.9756  138.9592  166.5450 F       1  UNL1       -0.2041
     25 H         143.2263  140.9120  172.1531 H       1  UNL1        0.1424
     26 H         142.6506  139.3520  171.7756 H       1  UNL1        0.1424
     27 C         143.8143  143.1402  157.5828 C.3     1  UNL1        0.1518
     28 N         145.2552  142.7464  157.4460 N.3     1  UNL1       -0.3134
     29 H         145.8420  143.4349  157.9172 H       1  UNL1        0.1193
     30 H         145.5044  142.7066  156.4578 H       1  UNL1        0.1193
     31 C         139.2856  143.8829  163.9516 C.3     1  UNL1        0.0885
     32 C         138.6727  144.7865  164.9801 C.3     1  UNL1        0.0246
     33 C         137.8983  143.6141  164.4549 C.3     1  UNL1        0.0246
@<TRIPOS>BOND
     1     1     2    1
     2     2     3   ar
     3     3    16    1
     4    16    17   ar
     5    17    18   ar
     6    18    19    1
     7    18    20   ar
     8    20    21    1
     9    20    22   ar
    10    22    23   ar
    11    23    24    1
    12     3     4   ar
    13     4     5   ar
    14     5     6   ar
    15     6     7   ar
    16     7     8   ar
    17     8     9   ar
    18     9    27    1
    19    27    28    1
    20     9    10   ar
    21    10    11   ar
    22    11    12   ar
    23    12    13    2
    24    12    14   ar
    25    14    31    1
    26    31    32    1
    27    32    33    1
    28    14    15   ar
    29    15     2   ar
    30    23    16   ar
    31    15     6   ar
    32    11     7   ar
    33    33    31    1
    34    21    25    1
    35    21    26    1
    36    28    29    1
    37    28    30    1
@<TRIPOS>MOLECULE
*****
 33 37 0 0 0
SMALL
GASTEIGER

@<TRIPOS>ATOM
      1 C         142.8304  141.4309  165.3399 C.3     1  UNL1        0.0325
      2 C         141.7392  142.2309  164.6924 C.ar    1  UNL1       -0.0058
      3 C         140.4581  142.4864  165.4297 C.ar    1  UNL1       -0.0003
      4 C         139.3669  143.2864  164.7823 C.ar    1  UNL1       -0.0000
      5 C         139.5567  143.8310  163.3976 C.ar    1  UNL1        0.0045
      6 C         140.8378  143.5756  162.6603 C.ar    1  UNL1        0.0518
      7 C         141.0276  144.1202  161.2756 C.ar    1  UNL1        0.1704
      8 O         140.1368  144.9374  160.3876 O.2     1  UNL1       -0.4368
      9 C         140.8674  145.1871  159.1016 C.ar    1  UNL1        0.2217
     10 N         142.2097  144.5241  159.1947 N.ar    1  UNL1       -0.2060
     11 C         142.3087  143.8647  160.5383 C.ar    1  UNL1        0.1744
     12 C         143.4000  143.0647  161.1858 C.ar    1  UNL1        0.2816
     13 O         144.6811  142.8092  160.4485 O.2     1  UNL1       -0.2652
     14 N         143.2101  142.5201  162.5704 N.ar    1  UNL1       -0.2963
     15 C         141.9291  142.7755  163.3077 C.ar    1  UNL1        0.0614
     16 C         140.2682  141.9418  166.8144 C.ar    1  UNL1        0.0295
     17 C         140.6304  142.7784  168.0055 C.ar    1  UNL1        0.0331
     18 C         140.4404  142.2337  169.3903 C.ar    1  UNL1        0.1530
     19 F         140.8026  143.0704  170.5814 F       1  UNL1       -0.2029
     20 C         139.8884  140.8525  169.5838 C.ar    1  UNL1        0.0716
     21 N         139.6985  140.3080  170.9684 N.pl3   1  UNL1       -0.3552
     22 C         139.5262  140.0159  168.3925 C.ar    1  UNL1        0.0460
     23 C         139.7161  140.5606  167.0079 C.ar    1  UNL1        0.1414
     24 F         139.3539  139.7240  165.8167 F       1  UNL1       -0.2041
     25 H         139.9362  140.8571  171.7502 H       1  UNL1        0.1424
     26 H         139.3361  139.4014  171.0955 H       1  UNL1        0.1424
     27 C         140.3470  145.9634  157.9283 C.3     1  UNL1        0.1518
     28 N         141.2841  146.3956  156.8397 N.3     1  UNL1       -0.3134
     29 H         141.9482  147.0741  157.2124 H       1  UNL1        0.1193
     30 H         140.7512  146.8222  156.0819 H       1  UNL1        0.1193
     31 C         144.3014  141.7200  163.2179 C.3     1  UNL1        0.0885
     32 C         144.8819  140.3938  163.6103 C.3     1  UNL1        0.0246
     33 C         145.6110  141.6607  163.9468 C.3     1  UNL1        0.0246
@<TRIPOS>BOND
     1     1     2    1
     2     2     3   ar
     3     3    16    1
     4    16    17   ar
     5    17    18   ar
     6    18    19    1
     7    18    20   ar
     8    20    21    1
     9    20    22   ar
    10    22    23   ar
    11    23    24    1
    12     3     4   ar
    13     4     5   ar
    14     5     6   ar
    15     6     7   ar
    16     7     8   ar
    17     8     9   ar
    18     9    27    1
    19    27    28    1
    20     9    10   ar
    21    10    11   ar
    22    11    12   ar
    23    12    13    2
    24    12    14   ar
    25    14    31    1
    26    31    32    1
    27    32    33    1
    28    14    15   ar
    29    15     2   ar
    30    23    16   ar
    31    15     6   ar
    32    11     7   ar
    33    33    31    1
    34    21    25    1
    35    21    26    1
    36    28    29    1
    37    28    30    1
@<TRIPOS>MOLECULE
*****
 33 37 0 0 0
SMALL
GASTEIGER

@<TRIPOS>ATOM
      1 C         142.9169  141.7130  165.7723 C.3     1  UNL1        0.0325
      2 C         142.4650  140.4650  165.0735 C.ar    1  UNL1       -0.0058
      3 C         141.7035  139.4164  165.8289 C.ar    1  UNL1       -0.0003
      4 C         141.2516  138.1684  165.1301 C.ar    1  UNL1       -0.0000
      5 C         141.5610  137.9690  163.6760 C.ar    1  UNL1        0.0045
      6 C         142.3224  139.0176  162.9206 C.ar    1  UNL1        0.0518
      7 C         142.6318  138.8183  161.4665 C.ar    1  UNL1        0.1704
      8 O         142.3183  137.6995  160.5178 O.2     1  UNL1       -0.4368
      9 C         142.8859  138.0567  159.1761 C.ar    1  UNL1        0.2217
     10 N         143.5503  139.3963  159.2955 N.ar    1  UNL1       -0.2060
     11 C         143.3933  139.8669  160.7111 C.ar    1  UNL1        0.1744
     12 C         143.8452  141.1149  161.4098 C.ar    1  UNL1        0.2816
     13 O         144.6067  142.1636  160.6545 O.2     1  UNL1       -0.2652
     14 N         143.5358  141.3142  162.8640 N.ar    1  UNL1       -0.2963
     15 C         142.7744  140.2657  163.6193 C.ar    1  UNL1        0.0614
     16 C         141.3941  139.6157  167.2830 C.ar    1  UNL1        0.0295
     17 C         142.4464  139.3464  168.3175 C.ar    1  UNL1        0.0331
     18 C         142.1368  139.5458  169.7717 C.ar    1  UNL1        0.1530
     19 F         143.1891  139.2766  170.8062 F       1  UNL1       -0.2029
     20 C         140.7751  140.0144  170.1913 C.ar    1  UNL1        0.0716
     21 N         140.4656  140.2137  171.6454 N.pl3   1  UNL1       -0.3552
     22 C         139.7228  140.2836  169.1567 C.ar    1  UNL1        0.0460
     23 C         140.0323  140.0842  167.7026 C.ar    1  UNL1        0.1414
     24 F         138.9800  140.3535  166.6681 F       1  UNL1       -0.2041
     25 H         141.1563  140.0370  172.3244 H       1  UNL1        0.1424
     26 H         139.5719  140.5212  171.9209 H       1  UNL1        0.1424
     27 C         142.8036  137.2211  157.9331 C.3     1  UNL1        0.1518
     28 N         143.4794  137.6797  156.6750 N.3     1  UNL1       -0.3134
     29 H         143.0297  138.5311  156.3384 H       1  UNL1        0.1193
     30 H         143.4048  136.9520  155.9642 H       1  UNL1        0.1193
     31 C         143.9878  142.5623  163.5627 C.3     1  UNL1        0.0885
     32 C         143.8457  144.0341  163.8145 C.3     1  UNL1        0.0246
     33 C         144.9129  143.2519  164.5211 C.3     1  UNL1        0.0246
@<TRIPOS>BOND
     1     1     2    1
     2     2     3   ar
     3     3    16    1
     4    16    17   ar
     5    17    18   ar
     6    18    19    1
     7    18    20   ar
     8    20    21    1
     9    20    22   ar
    10    22    23   ar
    11    23    24    1
    12     3     4   ar
    13     4     5   ar
    14     5     6   ar
    15     6     7   ar
    16     7     8   ar
    17     8     9   ar
    18     9    27    1
    19    27    28    1
    20     9    10   ar
    21    10    11   ar
    22    11    12   ar
    23    12    13    2
    24    12    14   ar
    25    14    31    1
    26    31    32    1
    27    32    33    1
    28    14    15   ar
    29    15     2   ar
    30    23    16   ar
    31    15     6   ar
    32    11     7   ar
    33    33    31    1
    34    21    25    1
    35    21    26    1
    36    28    29    1
    37    28    30    1
@<TRIPOS>MOLECULE
*****
 33 37 0 0 0
SMALL
GASTEIGER

@<TRIPOS>ATOM
      1 C         140.3718  139.8421  166.0599 C.3     1  UNL1        0.0325
      2 C         140.2987  141.0335  165.1515 C.ar    1  UNL1       -0.0058
      3 C         140.7277  142.3825  165.6477 C.ar    1  UNL1       -0.0003
      4 C         140.6546  143.5739  164.7393 C.ar    1  UNL1       -0.0000
      5 C         140.1525  143.4164  163.3347 C.ar    1  UNL1        0.0045
      6 C         139.7235  142.0674  162.8384 C.ar    1  UNL1        0.0518
      7 C         139.2214  141.9098  161.4337 C.ar    1  UNL1        0.1704
      8 O         139.0381  142.8944  160.3170 O.2     1  UNL1       -0.4368
      9 C         138.4958  142.1539  159.1306 C.ar    1  UNL1        0.2217
     10 N         138.3440  140.7117  159.5140 N.ar    1  UNL1       -0.2060
     11 C         138.7924  140.5609  160.9375 C.ar    1  UNL1        0.1744
     12 C         138.8655  139.3695  161.8459 C.ar    1  UNL1        0.2816
     13 O         138.4364  138.0205  161.3497 O.2     1  UNL1       -0.2652
     14 N         139.3676  139.5271  163.2505 N.ar    1  UNL1       -0.2963
     15 C         139.7965  140.8759  163.7468 C.ar    1  UNL1        0.0614
     16 C         141.2298  142.5401  167.0524 C.ar    1  UNL1        0.0295
     17 C         140.3126  143.0507  168.1238 C.ar    1  UNL1        0.0331
     18 C         140.8149  143.2083  169.5285 C.ar    1  UNL1        0.1530
     19 F         139.8977  143.7189  170.6000 F       1  UNL1       -0.2029
     20 C         142.2341  142.8552  169.8617 C.ar    1  UNL1        0.0716
     21 N         142.7362  143.0128  171.2663 N.pl3   1  UNL1       -0.3552
     22 C         143.1512  142.3446  168.7901 C.ar    1  UNL1        0.0460
     23 C         142.6490  142.1870  167.3855 C.ar    1  UNL1        0.1414
     24 F         143.5662  141.6763  166.3141 F       1  UNL1       -0.2041
     25 H         142.1343  143.3480  171.9696 H       1  UNL1        0.1424
     26 H         143.6677  142.7811  171.4850 H       1  UNL1        0.1424
     27 C         138.1637  142.7508  157.7951 C.3     1  UNL1        0.1518
     28 N         136.9602  142.2726  157.0383 N.3     1  UNL1       -0.3134
     29 H         137.0967  141.3004  156.7616 H       1  UNL1        0.1193
     30 H         136.8311  142.8481  156.2061 H       1  UNL1        0.1193
     31 C         139.4406  138.3356  164.1590 C.3     1  UNL1        0.0885
     32 C         138.7964  137.4255  165.1622 C.3     1  UNL1        0.0246
     33 C         140.2116  137.1820  164.7290 C.3     1  UNL1        0.0246
@<TRIPOS>BOND
     1     1     2    1
     2     2     3   ar
     3     3    16    1
     4    16    17   ar
     5    17    18   ar
     6    18    19    1
     7    18    20   ar
     8    20    21    1
     9    20    22   ar
    10    22    23   ar
    11    23    24    1
    12     3     4   ar
    13     4     5   ar
    14     5     6   ar
    15     6     7   ar
    16     7     8   ar
    17     8     9   ar
    18     9    27    1
    19    27    28    1
    20     9    10   ar
    21    10    11   ar
    22    11    12   ar
    23    12    13    2
    24    12    14   ar
    25    14    31    1
    26    31    32    1
    27    32    33    1
    28    14    15   ar
    29    15     2   ar
    30    23    16   ar
    31    15     6   ar
    32    11     7   ar
    33    33    31    1
    34    21    25    1
    35    21    26    1
    36    28    29    1
    37    28    30    1
@<TRIPOS>MOLECULE
*****
 33 37 0 0 0
SMALL
GASTEIGER

@<TRIPOS>ATOM
      1 C         139.8582  142.5372  165.9525 C.3     1  UNL1        0.0325
      2 C         140.2974  141.3004  165.2264 C.ar    1  UNL1       -0.0058
      3 C         141.0118  140.2094  165.9675 C.ar    1  UNL1       -0.0003
      4 C         141.4510  138.9725  165.2414 C.ar    1  UNL1       -0.0000
      5 C         141.1757  138.8265  163.7741 C.ar    1  UNL1        0.0045
      6 C         140.4612  139.9175  163.0329 C.ar    1  UNL1        0.0518
      7 C         140.1859  139.7716  161.5656 C.ar    1  UNL1        0.1704
      8 O         140.4966  138.6752  160.5903 O.2     1  UNL1       -0.4368
      9 C         139.9742  139.0885  159.2464 C.ar    1  UNL1        0.2217
     10 N         139.3406  140.4404  159.3911 N.ar    1  UNL1       -0.2060
     11 C         139.4714  140.8626  160.8245 C.ar    1  UNL1        0.1744
     12 C         139.0322  142.0994  161.5506 C.ar    1  UNL1        0.2816
     13 O         138.3177  143.1904  160.8095 O.2     1  UNL1       -0.2652
     14 N         139.3076  142.2453  163.0179 N.ar    1  UNL1       -0.2963
     15 C         140.0220  141.1544  163.7590 C.ar    1  UNL1        0.0614
     16 C         141.2872  140.3553  167.4348 C.ar    1  UNL1        0.0295
     17 C         142.5830  140.9513  167.8991 C.ar    1  UNL1        0.0331
     18 C         142.8582  141.0972  169.3664 C.ar    1  UNL1        0.1530
     19 F         144.1541  141.6933  169.8307 F       1  UNL1       -0.2029
     20 C         141.8378  140.6470  170.3694 C.ar    1  UNL1        0.0716
     21 N         142.1131  140.7929  171.8367 N.pl3   1  UNL1       -0.3552
     22 C         140.5419  140.0509  169.9050 C.ar    1  UNL1        0.0460
     23 C         140.2667  139.9051  168.4377 C.ar    1  UNL1        0.1414
     24 F         138.9709  139.3090  167.9734 F       1  UNL1       -0.2041
     25 H         142.9636  141.1841  172.1414 H       1  UNL1        0.1424
     26 H         141.4433  140.4974  172.4949 H       1  UNL1        0.1424
     27 C         140.0688  138.2902  157.9800 C.3     1  UNL1        0.1518
     28 N         139.0624  138.4958  156.8869 N.3     1  UNL1       -0.3134
     29 H         138.1430  138.1947  157.2101 H       1  UNL1        0.1193
     30 H         139.3316  137.9481  156.0695 H       1  UNL1        0.1193
     31 C         138.8684  143.4823  163.7440 C.3     1  UNL1        0.0885
     32 C         139.1447  144.8794  164.2149 C.3     1  UNL1        0.0246
     33 C         137.8312  144.2275  164.5307 C.3     1  UNL1        0.0246
@<TRIPOS>BOND
     1     1     2    1
     2     2     3   ar
     3     3    16    1
     4    16    17   ar
     5    17    18   ar
     6    18    19    1
     7    18    20   ar
     8    20    21    1
     9    20    22   ar
    10    22    23   ar
    11    23    24    1
    12     3     4   ar
    13     4     5   ar
    14     5     6   ar
    15     6     7   ar
    16     7     8   ar
    17     8     9   ar
    18     9    27    1
    19    27    28    1
    20     9    10   ar
    21    10    11   ar
    22    11    12   ar
    23    12    13    2
    24    12    14   ar
    25    14    31    1
    26    31    32    1
    27    32    33    1
    28    14    15   ar
    29    15     2   ar
    30    23    16   ar
    31    15     6   ar
    32    11     7   ar
    33    33    31    1
    34    21    25    1
    35    21    26    1
    36    28    29    1
    37    28    30    1
@<TRIPOS>MOLECULE
*****
 33 37 0 0 0
SMALL
GASTEIGER

@<TRIPOS>ATOM
      1 C         142.5939  140.8403  165.8397 C.3     1  UNL1        0.0325
      2 C         141.3025  140.9747  165.0885 C.ar    1  UNL1       -0.0058
      3 C         140.0448  141.3423  165.8187 C.ar    1  UNL1       -0.0003
      4 C         138.7535  141.4767  165.0675 C.ar    1  UNL1       -0.0000
      5 C         138.7197  141.2436  163.5862 C.ar    1  UNL1        0.0045
      6 C         139.9773  140.8760  162.8559 C.ar    1  UNL1        0.0518
      7 C         139.9436  140.6428  161.3745 C.ar    1  UNL1        0.1704
      8 O         138.8273  140.7021  160.3743 O.2     1  UNL1       -0.4368
      9 C         139.3951  140.3712  159.0260 C.ar    1  UNL1        0.2217
     10 N         140.8623  140.1073  159.1928 N.ar    1  UNL1       -0.2060
     11 C         141.2013  140.2752  160.6443 C.ar    1  UNL1        0.1744
     12 C         142.4926  140.1408  161.3955 C.ar    1  UNL1        0.2816
     13 O         143.7503  139.7732  160.6653 O.2     1  UNL1       -0.2652
     14 N         142.5263  140.3740  162.8769 N.ar    1  UNL1       -0.2963
     15 C         141.2688  140.7415  163.6071 C.ar    1  UNL1        0.0614
     16 C         140.0785  141.5755  167.3001 C.ar    1  UNL1        0.0295
     17 C         140.5495  142.8928  167.8414 C.ar    1  UNL1        0.0331
     18 C         140.5832  143.1259  169.3229 C.ar    1  UNL1        0.1530
     19 F         141.0542  144.4431  169.8643 F       1  UNL1       -0.2029
     20 C         140.1459  142.0418  170.2629 C.ar    1  UNL1        0.0716
     21 N         140.1796  142.2750  171.7443 N.pl3   1  UNL1       -0.3552
     22 C         139.6749  140.7246  169.7214 C.ar    1  UNL1        0.0460
     23 C         139.6412  140.4915  168.2401 C.ar    1  UNL1        0.1414
     24 F         139.1702  139.1743  167.6987 F       1  UNL1       -0.2041
     25 H         140.4887  143.1395  172.0996 H       1  UNL1        0.1424
     26 H         139.8926  141.5635  172.3612 H       1  UNL1        0.1424
     27 C         138.6301  140.3142  157.7370 C.3     1  UNL1        0.1518
     28 N         138.8847  139.2029  156.7622 N.3     1  UNL1       -0.3134
     29 H         139.8327  139.2836  156.3946 H       1  UNL1        0.1193
     30 H         138.2160  139.2641  155.9945 H       1  UNL1        0.1193
     31 C         143.8178  140.2395  163.6280 C.3     1  UNL1        0.0885
     32 C         144.7628  139.4139  164.4498 C.3     1  UNL1        0.0246
     33 C         145.1096  140.8325  164.1073 C.3     1  UNL1        0.0246
@<TRIPOS>BOND
     1     1     2    1
     2     2     3   ar
     3     3    16    1
     4    16    17   ar
     5    17    18   ar
     6    18    19    1
     7    18    20   ar
     8    20    21    1
     9    20    22   ar
    10    22    23   ar
    11    23    24    1
    12     3     4   ar
    13     4     5   ar
    14     5     6   ar
    15     6     7   ar
    16     7     8   ar
    17     8     9   ar
    18     9    27    1
    19    27    28    1
    20     9    10   ar
    21    10    11   ar
    22    11    12   ar
    23    12    13    2
    24    12    14   ar
    25    14    31    1
    26    31    32    1
    27    32    33    1
    28    14    15   ar
    29    15     2   ar
    30    23    16   ar
    31    15     6   ar
    32    11     7   ar
    33    33    31    1
    34    21    25    1
    35    21    26    1
    36    28    29    1
    37    28    30    1
@<TRIPOS>MOLECULE
*****
 33 37 0 0 0
SMALL
GASTEIGER

@<TRIPOS>ATOM
      1 C         139.6664  141.0987  161.6556 C.3     1  UNL1        0.0325
      2 C         140.0756  141.8020  162.9157 C.ar    1  UNL1       -0.0058
      3 C         140.7414  143.1442  162.8433 C.ar    1  UNL1       -0.0003
      4 C         141.1505  143.8475  164.1034 C.ar    1  UNL1       -0.0000
      5 C         140.8941  143.2086  165.4360 C.ar    1  UNL1        0.0045
      6 C         140.2283  141.8663  165.5086 C.ar    1  UNL1        0.0518
      7 C         139.9718  141.2274  166.8412 C.ar    1  UNL1        0.1704
      8 O         140.2614  141.6775  168.2425 O.2     1  UNL1       -0.4368
      9 C         139.7746  140.6134  169.1810 C.ar    1  UNL1        0.2217
     10 N         139.1842  139.5057  168.3598 N.ar    1  UNL1       -0.2060
     11 C         139.3061  139.8851  166.9137 C.ar    1  UNL1        0.1744
     12 C         138.8969  139.1819  165.6536 C.ar    1  UNL1        0.2816
     13 O         138.2312  137.8396  165.7260 O.2     1  UNL1       -0.2652
     14 N         139.1534  139.8208  164.3209 N.ar    1  UNL1       -0.2963
     15 C         139.8191  141.1630  164.2484 C.ar    1  UNL1        0.0614
     16 C         140.9979  143.7832  161.5107 C.ar    1  UNL1        0.0295
     17 C         142.1299  143.3006  160.6530 C.ar    1  UNL1        0.0331
     18 C         142.3864  143.9397  159.3203 C.ar    1  UNL1        0.1530
     19 F         143.5184  143.4571  158.4626 F       1  UNL1       -0.2029
     20 C         141.5109  145.0612  158.8454 C.ar    1  UNL1        0.0716
     21 N         141.7674  145.7002  157.5128 N.pl3   1  UNL1       -0.3552
     22 C         140.3788  145.5438  159.7031 C.ar    1  UNL1        0.0460
     23 C         140.1224  144.9047  161.0357 C.ar    1  UNL1        0.1414
     24 F         138.9903  145.3873  161.8934 F       1  UNL1       -0.2041
     25 H         142.5104  145.3835  156.9498 H       1  UNL1        0.1424
     26 H         141.1928  146.4363  157.2010 H       1  UNL1        0.1424
     27 C         139.8627  140.6505  170.6780 C.3     1  UNL1        0.1518
     28 N         139.9107  139.3704  171.4584 N.3     1  UNL1       -0.3134
     29 H         139.0262  138.8739  171.3518 H       1  UNL1        0.1193
     30 H         140.0667  139.5791  172.4446 H       1  UNL1        0.1193
     31 C         138.7442  139.1175  163.0608 C.3     1  UNL1        0.0885
     32 C         139.0234  138.1077  161.9873 C.3     1  UNL1        0.0246
     33 C         137.7560  138.9092  161.9516 C.3     1  UNL1        0.0246
@<TRIPOS>BOND
     1     1     2    1
     2     2     3   ar
     3     3    16    1
     4    16    17   ar
     5    17    18   ar
     6    18    19    1
     7    18    20   ar
     8    20    21    1
     9    20    22   ar
    10    22    23   ar
    11    23    24    1
    12     3     4   ar
    13     4     5   ar
    14     5     6   ar
    15     6     7   ar
    16     7     8   ar
    17     8     9   ar
    18     9    27    1
    19    27    28    1
    20     9    10   ar
    21    10    11   ar
    22    11    12   ar
    23    12    13    2
    24    12    14   ar
    25    14    31    1
    26    31    32    1
    27    32    33    1
    28    14    15   ar
    29    15     2   ar
    30    23    16   ar
    31    15     6   ar
    32    11     7   ar
    33    33    31    1
    34    21    25    1
    35    21    26    1
    36    28    29    1
    37    28    30    1
@<TRIPOS>MOLECULE
*****
 33 37 0 0 0
SMALL
GASTEIGER

@<TRIPOS>ATOM
      1 C         142.8128  140.6217  165.5832 C.3     1  UNL1        0.0325
      2 C         141.5671  140.4254  164.7711 C.ar    1  UNL1       -0.0058
      3 C         140.2251  140.7192  165.3734 C.ar    1  UNL1       -0.0003
      4 C         138.9793  140.5229  164.5613 C.ar    1  UNL1       -0.0000
      5 C         139.0754  140.0329  163.1469 C.ar    1  UNL1        0.0045
      6 C         140.4174  139.7391  162.5445 C.ar    1  UNL1        0.0518
      7 C         140.5136  139.2491  161.1300 C.ar    1  UNL1        0.1704
      8 O         139.4677  138.9630  160.0936 O.2     1  UNL1       -0.4368
      9 C         140.1633  138.4925  158.8508 C.ar    1  UNL1        0.2217
     10 N         141.6391  138.4877  159.1190 N.ar    1  UNL1       -0.2060
     11 C         141.8556  138.9553  160.5277 C.ar    1  UNL1        0.1744
     12 C         143.1014  139.1516  161.3398 C.ar    1  UNL1        0.2816
     13 O         144.4434  138.8578  160.7375 O.2     1  UNL1       -0.2652
     14 N         143.0052  139.6416  162.7542 N.ar    1  UNL1       -0.2963
     15 C         141.6633  139.9354  163.3565 C.ar    1  UNL1        0.0614
     16 C         140.1288  141.2092  166.7878 C.ar    1  UNL1        0.0295
     17 C         139.7434  140.2620  167.8851 C.ar    1  UNL1        0.0331
     18 C         139.6472  140.7521  169.2996 C.ar    1  UNL1        0.1530
     19 F         139.2618  139.8049  170.3969 F       1  UNL1       -0.2029
     20 C         139.9364  142.1894  169.6167 C.ar    1  UNL1        0.0716
     21 N         139.8402  142.6794  171.0311 N.pl3   1  UNL1       -0.3552
     22 C         140.3219  143.1366  168.5192 C.ar    1  UNL1        0.0460
     23 C         140.4181  142.6465  167.1049 C.ar    1  UNL1        0.1414
     24 F         140.8035  143.5938  166.0075 F       1  UNL1       -0.2041
     25 H         139.5872  142.0577  171.7513 H       1  UNL1        0.1424
     26 H         140.0300  143.6228  171.2392 H       1  UNL1        0.1424
     27 C         139.4996  138.0962  157.5653 C.3     1  UNL1        0.1518
     28 N         140.1159  137.0392  156.6977 N.3     1  UNL1       -0.3134
     29 H         141.0071  137.3757  156.3330 H       1  UNL1        0.1193
     30 H         139.4888  136.8282  155.9214 H       1  UNL1        0.1193
     31 C         144.2510  139.8379  163.5663 C.3     1  UNL1        0.0885
     32 C         145.4019  140.7007  163.9918 C.3     1  UNL1        0.0246
     33 C         145.2580  139.3148  164.5474 C.3     1  UNL1        0.0246
@<TRIPOS>BOND
     1     1     2    1
     2     2     3   ar
     3     3    16    1
     4    16    17   ar
     5    17    18   ar
     6    18    19    1
     7    18    20   ar
     8    20    21    1
     9    20    22   ar
    10    22    23   ar
    11    23    24    1
    12     3     4   ar
    13     4     5   ar
    14     5     6   ar
    15     6     7   ar
    16     7     8   ar
    17     8     9   ar
    18     9    27    1
    19    27    28    1
    20     9    10   ar
    21    10    11   ar
    22    11    12   ar
    23    12    13    2
    24    12    14   ar
    25    14    31    1
    26    31    32    1
    27    32    33    1
    28    14    15   ar
    29    15     2   ar
    30    23    16   ar
    31    15     6   ar
    32    11     7   ar
    33    33    31    1
    34    21    25    1
    35    21    26    1
    36    28    29    1
    37    28    30    1
@<TRIPOS>MOLECULE
*****
 33 37 0 0 0
SMALL
GASTEIGER

@<TRIPOS>ATOM
      1 C         141.3602  139.8092  165.2603 C.3     1  UNL1        0.0325
      2 C         142.1041  140.8879  164.5303 C.ar    1  UNL1       -0.0058
      3 C         142.5092  142.1394  165.2512 C.ar    1  UNL1       -0.0003
      4 C         143.2531  143.2181  164.5212 C.ar    1  UNL1       -0.0000
      5 C         143.5919  143.0454  163.0702 C.ar    1  UNL1        0.0045
      6 C         143.1869  141.7940  162.3492 C.ar    1  UNL1        0.0518
      7 C         143.5257  141.6212  160.8982 C.ar    1  UNL1        0.1704
      8 O         144.2454  142.5055  159.9234 O.2     1  UNL1       -0.4368
      9 C         144.2851  141.8005  158.6000 C.ar    1  UNL1        0.2217
     10 N         143.5899  140.4805  158.7569 N.ar    1  UNL1       -0.2060
     11 C         143.1206  140.3698  160.1773 C.ar    1  UNL1        0.1744
     12 C         142.3767  139.2911  160.9073 C.ar    1  UNL1        0.2816
     13 O         141.9716  138.0396  160.1864 O.2     1  UNL1       -0.2652
     14 N         142.0379  139.4638  162.3583 N.ar    1  UNL1       -0.2963
     15 C         142.4429  140.7152  163.0792 C.ar    1  UNL1        0.0614
     16 C         142.1704  142.3121  166.7022 C.ar    1  UNL1        0.0295
     17 C         143.2314  142.1310  167.7468 C.ar    1  UNL1        0.0331
     18 C         142.8925  142.3037  169.1979 C.ar    1  UNL1        0.1530
     19 F         143.9536  142.1226  170.2425 F       1  UNL1       -0.2029
     20 C         141.4926  142.6576  169.6042 C.ar    1  UNL1        0.0716
     21 N         141.1538  142.8304  171.0551 N.pl3   1  UNL1       -0.3552
     22 C         140.4316  142.8388  168.5594 C.ar    1  UNL1        0.0460
     23 C         140.7705  142.6660  167.1085 C.ar    1  UNL1        0.1414
     24 F         139.7094  142.8472  166.0638 F       1  UNL1       -0.2041
     25 H         141.8502  142.7115  171.7408 H       1  UNL1        0.1424
     26 H         140.2350  143.0627  171.3218 H       1  UNL1        0.1424
     27 C         144.9102  142.3235  157.3408 C.3     1  UNL1        0.1518
     28 N         146.3478  142.7517  157.3389 N.3     1  UNL1       -0.3134
     29 H         146.4596  143.5699  157.9376 H       1  UNL1        0.1193
     30 H         146.6317  142.9852  156.3875 H       1  UNL1        0.1193
     31 C         141.2939  138.3850  163.0883 C.3     1  UNL1        0.0885
     32 C         139.9990  137.7412  163.4868 C.3     1  UNL1        0.0246
     33 C         141.3005  137.1602  163.9542 C.3     1  UNL1        0.0246
@<TRIPOS>BOND
     1     1     2    1
     2     2     3   ar
     3     3    16    1
     4    16    17   ar
     5    17    18   ar
     6    18    19    1
     7    18    20   ar
     8    20    21    1
     9    20    22   ar
    10    22    23   ar
    11    23    24    1
    12     3     4   ar
    13     4     5   ar
    14     5     6   ar
    15     6     7   ar
    16     7     8   ar
    17     8     9   ar
    18     9    27    1
    19    27    28    1
    20     9    10   ar
    21    10    11   ar
    22    11    12   ar
    23    12    13    2
    24    12    14   ar
    25    14    31    1
    26    31    32    1
    27    32    33    1
    28    14    15   ar
    29    15     2   ar
    30    23    16   ar
    31    15     6   ar
    32    11     7   ar
    33    33    31    1
    34    21    25    1
    35    21    26    1
    36    28    29    1
    37    28    30    1
