@<TRIPOS>MOLECULE
*****
 33 37 0 0 0
SMALL
GASTEIGER

@<TRIPOS>ATOM
      1 C         141.0976  138.8743  160.9916 C.3     1  UNL1        0.0747
      2 C         140.0805  138.8056  159.8913 C.3     1  UNL1        0.0369
      3 C         140.4875  138.3509  158.5211 C.3     1  UNL1        0.0741
      4 N         141.9116  137.9647  158.2512 N.3     1  UNL1       -0.2688
      5 C         142.9287  138.0334  159.3515 C.3     1  UNL1        0.0741
      6 C         142.5217  138.4882  160.7218 C.3     1  UNL1        0.0369
      7 O         140.6714  136.8616  163.1751 O.2     1  UNL1       -0.2668
      8 C         140.4775  138.3227  163.4536 C.2     1  UNL1        0.2806
      9 N         140.6906  139.3290  162.3618 N.am    1  UNL1       -0.2999
     10 H         140.5633  140.2880  162.5446 H       1  UNL1        0.1498
     11 C         140.0705  138.7775  164.8238 C.ar    1  UNL1        0.2014
     12 C         138.8061  138.2583  165.4416 C.ar    1  UNL1        0.0843
     13 C         138.3991  138.7130  166.8118 C.ar    1  UNL1        0.2018
     14 O         137.1347  138.1938  167.4296 O.2     1  UNL1       -0.2864
     15 C         139.2565  139.6871  167.5643 C.ar    1  UNL1        0.0737
     16 C         138.8495  140.1419  168.9345 C.ar    1  UNL1        0.0085
     17 C         139.7069  141.1159  169.6869 C.ar    1  UNL1        0.0299
     18 C         140.9713  141.6351  169.0691 C.ar    1  UNL1        0.1432
     19 F         141.8287  142.6092  169.8216 F       1  UNL1       -0.2041
     20 C         141.3783  141.1803  167.6989 C.ar    1  UNL1        0.0672
     21 C         140.5209  140.2063  166.9465 C.ar    1  UNL1        0.1508
     22 O         140.9279  139.7515  165.5763 O.2     1  UNL1       -0.4486
     23 C         142.3186  137.5100  156.8809 C.3     1  UNL1        0.1001
     24 C         142.2735  136.0523  156.5303 C.ar    1  UNL1        0.0077
     25 C         143.1746  135.0829  157.2361 C.ar    1  UNL1        0.0381
     26 C         143.1295  133.6251  156.8855 C.ar    1  UNL1        0.1762
     27 C         142.1833  133.1368  155.8290 C.ar    1  UNL1        0.1772
     28 C         141.2822  134.1062  155.1232 C.ar    1  UNL1        0.0513
     29 C         141.3273  135.5639  155.4739 C.ar    1  UNL1        0.0582
     30 CL        140.4261  136.5333  154.7680 Cl      1  UNL1       -0.0824
     31 O         142.3610  131.6531  155.6976 O.3     1  UNL1       -0.4346
     32 C         143.4170  131.2245  156.6729 C.3     1  UNL1        0.4294
     33 O         143.8920  132.4433  157.4070 O.3     1  UNL1       -0.4346
@<TRIPOS>BOND
     1     7     8    2
     2     8     9   am
     3     9     1    1
     4     1     2    1
     5     2     3    1
     6     3     4    1
     7     4    23    1
     8    23    24    1
     9    24    25   ar
    10    25    26   ar
    11    26    27   ar
    12    27    28   ar
    13    28    29   ar
    14    29    30    1
    15    27    31    1
    16    31    32    1
    17    32    33    1
    18     4     5    1
    19     5     6    1
    20     8    11    1
    21    11    12   ar
    22    12    13   ar
    23    13    14    2
    24    13    15   ar
    25    15    16   ar
    26    16    17   ar
    27    17    18   ar
    28    18    19    1
    29    18    20   ar
    30    20    21   ar
    31    21    22   ar
    32     6     1    1
    33    22    11   ar
    34    29    24   ar
    35    21    15   ar
    36    33    26    1
    37     9    10    1
@<TRIPOS>MOLECULE
*****
 33 37 0 0 0
SMALL
GASTEIGER

@<TRIPOS>ATOM
      1 C         137.8374  139.5531  161.5062 C.3     1  UNL1        0.0747
      2 C         138.3575  138.1837  161.8288 C.3     1  UNL1        0.0369
      3 C         138.7742  137.8507  163.2307 C.3     1  UNL1        0.0741
      4 N         138.6707  138.8872  164.3101 N.3     1  UNL1       -0.2688
      5 C         138.1506  140.2567  163.9875 C.3     1  UNL1        0.0741
      6 C         137.7339  140.5896  162.5855 C.3     1  UNL1        0.0369
      7 O         139.9110  140.2203  159.4434 O.2     1  UNL1       -0.2668
      8 C         138.4575  140.2197  159.0728 C.2     1  UNL1        0.2806
      9 N         137.4207  139.8861  160.1042 N.am    1  UNL1       -0.2999
     10 H         136.4667  139.8857  159.8610 H       1  UNL1        0.1498
     11 C         138.0407  140.5526  157.6708 C.ar    1  UNL1        0.2014
     12 C         139.0802  140.8193  156.6228 C.ar    1  UNL1        0.0843
     13 C         138.6635  141.1523  155.2208 C.ar    1  UNL1        0.2018
     14 O         139.7029  141.4190  154.1728 O.2     1  UNL1       -0.2864
     15 C         137.2073  141.2186  154.8669 C.ar    1  UNL1        0.0737
     16 C         136.7906  141.5515  153.4650 C.ar    1  UNL1        0.0085
     17 C         135.3345  141.6178  153.1111 C.ar    1  UNL1        0.0299
     18 C         134.2951  141.3511  154.1591 C.ar    1  UNL1        0.1432
     19 F         132.8389  141.4173  153.8052 F       1  UNL1       -0.2041
     20 C         134.7117  141.0181  155.5611 C.ar    1  UNL1        0.0672
     21 C         136.1679  140.9519  155.9150 C.ar    1  UNL1        0.1508
     22 O         136.5846  140.6189  157.3170 O.2     1  UNL1       -0.4486
     23 C         139.0874  138.5543  165.7121 C.3     1  UNL1        0.1001
     24 C         140.1265  139.3864  166.4033 C.ar    1  UNL1        0.0077
     25 C         139.7125  140.4236  167.4047 C.ar    1  UNL1        0.0381
     26 C         140.7516  141.2557  168.0959 C.ar    1  UNL1        0.1762
     27 C         142.2047  141.0506  167.7858 C.ar    1  UNL1        0.1772
     28 C         142.6188  140.0135  166.7845 C.ar    1  UNL1        0.0513
     29 C         141.5797  139.1813  166.0932 C.ar    1  UNL1        0.0582
     30 CL        141.9938  138.1441  165.0918 Cl      1  UNL1       -0.0824
     31 O         142.9969  142.0137  168.6194 O.3     1  UNL1       -0.4346
     32 C         142.0334  142.8140  169.4447 C.3     1  UNL1        0.4294
     33 O         140.6456  142.3456  169.1212 O.3     1  UNL1       -0.4346
@<TRIPOS>BOND
     1     7     8    2
     2     8     9   am
     3     9     1    1
     4     1     2    1
     5     2     3    1
     6     3     4    1
     7     4    23    1
     8    23    24    1
     9    24    25   ar
    10    25    26   ar
    11    26    27   ar
    12    27    28   ar
    13    28    29   ar
    14    29    30    1
    15    27    31    1
    16    31    32    1
    17    32    33    1
    18     4     5    1
    19     5     6    1
    20     8    11    1
    21    11    12   ar
    22    12    13   ar
    23    13    14    2
    24    13    15   ar
    25    15    16   ar
    26    16    17   ar
    27    17    18   ar
    28    18    19    1
    29    18    20   ar
    30    20    21   ar
    31    21    22   ar
    32     6     1    1
    33    22    11   ar
    34    29    24   ar
    35    21    15   ar
    36    33    26    1
    37     9    10    1
@<TRIPOS>MOLECULE
*****
 33 37 0 0 0
SMALL
GASTEIGER

@<TRIPOS>ATOM
      1 C         143.3991  138.2891  160.6851 C.3     1  UNL1        0.0747
      2 C         144.0152  139.6213  160.3758 C.3     1  UNL1        0.0369
      3 C         144.0752  140.6835  161.4332 C.3     1  UNL1        0.0741
      4 N         143.5190  140.4136  162.7999 N.3     1  UNL1       -0.2688
      5 C         142.9029  139.0814  163.1092 C.3     1  UNL1        0.0741
      6 C         142.8429  138.0191  162.0518 C.3     1  UNL1        0.0369
      7 O         141.8093  138.7509  158.1833 O.2     1  UNL1       -0.2668
      8 C         142.5443  137.4578  158.3769 C.2     1  UNL1        0.2806
      9 N         143.3392  137.2269  159.6278 N.am    1  UNL1       -0.2999
     10 H         143.8216  136.3781  159.7548 H       1  UNL1        0.1498
     11 C         142.4843  136.3955  157.3195 C.ar    1  UNL1        0.2014
     12 C         141.5527  136.5491  156.1540 C.ar    1  UNL1        0.0843
     13 C         141.4927  135.4868  155.0967 C.ar    1  UNL1        0.2018
     14 O         140.5610  135.6405  153.9312 O.2     1  UNL1       -0.2864
     15 C         142.3645  134.2709  155.2048 C.ar    1  UNL1        0.0737
     16 C         142.3045  133.2087  154.1475 C.ar    1  UNL1        0.0085
     17 C         143.1762  131.9928  154.2556 C.ar    1  UNL1        0.0299
     18 C         144.1079  131.8392  155.4211 C.ar    1  UNL1        0.1432
     19 F         144.9796  130.6232  155.5293 F       1  UNL1       -0.2041
     20 C         144.1678  132.9014  156.4785 C.ar    1  UNL1        0.0672
     21 C         143.2961  134.1173  156.3703 C.ar    1  UNL1        0.1508
     22 O         143.3561  135.1796  157.4277 O.2     1  UNL1       -0.4486
     23 C         143.5789  141.4758  163.8572 C.3     1  UNL1        0.1001
     24 C         142.4516  142.4547  164.0017 C.ar    1  UNL1        0.0077
     25 C         141.0813  141.9710  164.3735 C.ar    1  UNL1        0.0381
     26 C         139.9540  142.9499  164.5180 C.ar    1  UNL1        0.1762
     27 C         140.1969  144.4125  164.2907 C.ar    1  UNL1        0.1772
     28 C         141.5672  144.8962  163.9189 C.ar    1  UNL1        0.0513
     29 C         142.6946  143.9173  163.7744 C.ar    1  UNL1        0.0582
     30 CL        144.0649  144.4011  163.4026 Cl      1  UNL1       -0.0824
     31 O         138.9006  145.1363  164.5039 O.3     1  UNL1       -0.4346
     32 C         137.8564  144.1211  164.8631 C.3     1  UNL1        0.4294
     33 O         138.5074  142.7698  164.8718 O.3     1  UNL1       -0.4346
@<TRIPOS>BOND
     1     7     8    2
     2     8     9   am
     3     9     1    1
     4     1     2    1
     5     2     3    1
     6     3     4    1
     7     4    23    1
     8    23    24    1
     9    24    25   ar
    10    25    26   ar
    11    26    27   ar
    12    27    28   ar
    13    28    29   ar
    14    29    30    1
    15    27    31    1
    16    31    32    1
    17    32    33    1
    18     4     5    1
    19     5     6    1
    20     8    11    1
    21    11    12   ar
    22    12    13   ar
    23    13    14    2
    24    13    15   ar
    25    15    16   ar
    26    16    17   ar
    27    17    18   ar
    28    18    19    1
    29    18    20   ar
    30    20    21   ar
    31    21    22   ar
    32     6     1    1
    33    22    11   ar
    34    29    24   ar
    35    21    15   ar
    36    33    26    1
    37     9    10    1
@<TRIPOS>MOLECULE
*****
 33 37 0 0 0
SMALL
GASTEIGER

@<TRIPOS>ATOM
      1 C         141.9750  140.1168  161.3444 C.3     1  UNL1        0.0747
      2 C         141.1435  139.0544  160.6886 C.3     1  UNL1        0.0369
      3 C         141.4543  138.6169  159.2879 C.3     1  UNL1        0.0741
      4 N         142.5966  139.2417  158.5430 N.3     1  UNL1       -0.2688
      5 C         143.4280  140.3041  159.1988 C.3     1  UNL1        0.0741
      6 C         143.1172  140.7416  160.5995 C.3     1  UNL1        0.0369
      7 O         143.4285  138.8808  163.6594 O.2     1  UNL1       -0.2668
      8 C         142.3909  139.9363  163.9026 C.2     1  UNL1        0.2806
      9 N         141.6642  140.5544  162.7451 N.am    1  UNL1       -0.2999
     10 H         140.9832  141.2472  162.9047 H       1  UNL1        0.1498
     11 C         142.0801  140.3739  165.3033 C.ar    1  UNL1        0.2014
     12 C         143.0155  141.2979  166.0254 C.ar    1  UNL1        0.0843
     13 C         142.7047  141.7355  167.4260 C.ar    1  UNL1        0.2018
     14 O         143.6401  142.6594  168.1481 O.2     1  UNL1       -0.2864
     15 C         141.4585  141.2492  168.1047 C.ar    1  UNL1        0.0737
     16 C         141.1477  141.6868  169.5053 C.ar    1  UNL1        0.0085
     17 C         139.9015  141.2005  170.1839 C.ar    1  UNL1        0.0299
     18 C         138.9661  140.2766  169.4618 C.ar    1  UNL1        0.1432
     19 F         137.7199  139.7903  170.1405 F       1  UNL1       -0.2041
     20 C         139.2769  139.8389  168.0612 C.ar    1  UNL1        0.0672
     21 C         140.5231  140.3253  167.3826 C.ar    1  UNL1        0.1508
     22 O         140.8339  139.8876  165.9819 O.2     1  UNL1       -0.4486
     23 C         142.9074  138.8041  157.1423 C.3     1  UNL1        0.1001
     24 C         142.4891  137.4427  156.6716 C.ar    1  UNL1        0.0077
     25 C         143.1511  136.2191  157.2325 C.ar    1  UNL1        0.0381
     26 C         142.7328  134.8577  156.7618 C.ar    1  UNL1        0.1762
     27 C         141.6526  134.7198  155.7303 C.ar    1  UNL1        0.1772
     28 C         140.9907  135.9434  155.1694 C.ar    1  UNL1        0.0513
     29 C         141.4089  137.3048  155.6401 C.ar    1  UNL1        0.0582
     30 CL        140.7469  138.5285  155.0792 Cl      1  UNL1       -0.0824
     31 O         141.4527  133.2578  155.4610 O.3     1  UNL1       -0.4346
     32 C         142.4093  132.4920  156.3262 C.3     1  UNL1        0.4294
     33 O         143.2005  133.4808  157.1301 O.3     1  UNL1       -0.4346
@<TRIPOS>BOND
     1     7     8    2
     2     8     9   am
     3     9     1    1
     4     1     2    1
     5     2     3    1
     6     3     4    1
     7     4    23    1
     8    23    24    1
     9    24    25   ar
    10    25    26   ar
    11    26    27   ar
    12    27    28   ar
    13    28    29   ar
    14    29    30    1
    15    27    31    1
    16    31    32    1
    17    32    33    1
    18     4     5    1
    19     5     6    1
    20     8    11    1
    21    11    12   ar
    22    12    13   ar
    23    13    14    2
    24    13    15   ar
    25    15    16   ar
    26    16    17   ar
    27    17    18   ar
    28    18    19    1
    29    18    20   ar
    30    20    21   ar
    31    21    22   ar
    32     6     1    1
    33    22    11   ar
    34    29    24   ar
    35    21    15   ar
    36    33    26    1
    37     9    10    1
@<TRIPOS>MOLECULE
*****
 33 37 0 0 0
SMALL
GASTEIGER

@<TRIPOS>ATOM
      1 C         142.6032  138.5677  160.9454 C.3     1  UNL1        0.0747
      2 C         143.8539  138.4897  161.7699 C.3     1  UNL1        0.0369
      3 C         144.1073  139.5037  162.8457 C.3     1  UNL1        0.0741
      4 N         143.1101  140.5958  163.0971 N.3     1  UNL1       -0.2688
      5 C         141.8595  140.6737  162.2726 C.3     1  UNL1        0.0741
      6 C         141.6060  139.6596  161.1967 C.3     1  UNL1        0.0369
      7 O         143.4182  139.1462  158.1167 O.2     1  UNL1       -0.2668
      8 C         142.7572  137.8429  158.4552 C.2     1  UNL1        0.2806
      9 N         142.3497  137.5537  159.8695 N.am    1  UNL1       -0.2999
     10 H         141.9159  136.6983  160.0917 H       1  UNL1        0.1498
     11 C         142.5037  136.8288  157.3794 C.ar    1  UNL1        0.2014
     12 C         141.4188  137.0615  156.3700 C.ar    1  UNL1        0.0843
     13 C         141.1652  136.0475  155.2942 C.ar    1  UNL1        0.2018
     14 O         140.0803  136.2801  154.2849 O.2     1  UNL1       -0.2864
     15 C         141.9967  134.8007  155.2277 C.ar    1  UNL1        0.0737
     16 C         141.7431  133.7867  154.1518 C.ar    1  UNL1        0.0085
     17 C         142.5746  132.5400  154.0853 C.ar    1  UNL1        0.0299
     18 C         143.6595  132.3073  155.0947 C.ar    1  UNL1        0.1432
     19 F         144.4910  131.0606  155.0281 F       1  UNL1       -0.2041
     20 C         143.9131  133.3214  156.1705 C.ar    1  UNL1        0.0672
     21 C         143.0816  134.5680  156.2370 C.ar    1  UNL1        0.1508
     22 O         143.3351  135.5821  157.3129 O.2     1  UNL1       -0.4486
     23 C         143.3636  141.6098  164.1730 C.3     1  UNL1        0.1001
     24 C         142.6318  141.5165  165.4790 C.ar    1  UNL1        0.0077
     25 C         142.9497  140.4090  166.4394 C.ar    1  UNL1        0.0381
     26 C         142.2179  140.3157  167.7454 C.ar    1  UNL1        0.1762
     27 C         141.1682  141.3298  168.0911 C.ar    1  UNL1        0.1772
     28 C         140.8503  142.4373  167.1308 C.ar    1  UNL1        0.0513
     29 C         141.5821  142.5306  165.8247 C.ar    1  UNL1        0.0582
     30 CL        141.2642  143.6382  164.8643 Cl      1  UNL1       -0.0824
     31 O         140.6166  140.9838  169.4424 O.3     1  UNL1       -0.4346
     32 C         141.3254  139.7558  169.9319 C.3     1  UNL1        0.4294
     33 O         142.3151  139.3428  168.8831 O.3     1  UNL1       -0.4346
@<TRIPOS>BOND
     1     7     8    2
     2     8     9   am
     3     9     1    1
     4     1     2    1
     5     2     3    1
     6     3     4    1
     7     4    23    1
     8    23    24    1
     9    24    25   ar
    10    25    26   ar
    11    26    27   ar
    12    27    28   ar
    13    28    29   ar
    14    29    30    1
    15    27    31    1
    16    31    32    1
    17    32    33    1
    18     4     5    1
    19     5     6    1
    20     8    11    1
    21    11    12   ar
    22    12    13   ar
    23    13    14    2
    24    13    15   ar
    25    15    16   ar
    26    16    17   ar
    27    17    18   ar
    28    18    19    1
    29    18    20   ar
    30    20    21   ar
    31    21    22   ar
    32     6     1    1
    33    22    11   ar
    34    29    24   ar
    35    21    15   ar
    36    33    26    1
    37     9    10    1
@<TRIPOS>MOLECULE
*****
 33 37 0 0 0
SMALL
GASTEIGER

@<TRIPOS>ATOM
      1 C         142.7780  138.9798  158.1299 C.3     1  UNL1        0.0747
      2 C         143.3246  139.0794  159.5233 C.3     1  UNL1        0.0369
      3 C         143.4883  140.4227  160.1704 C.3     1  UNL1        0.0741
      4 N         143.1054  141.6664  159.4241 N.3     1  UNL1       -0.2688
      5 C         142.5589  141.5667  158.0308 C.3     1  UNL1        0.0741
      6 C         142.3952  140.2233  157.3837 C.3     1  UNL1        0.0369
      7 O         144.5375  138.1988  155.8290 O.2     1  UNL1       -0.2668
      8 C         143.4941  137.2460  156.3323 C.2     1  UNL1        0.2806
      9 N         142.6143  137.6365  157.4828 N.am    1  UNL1       -0.2999
     10 H         141.9295  137.0111  157.8132 H       1  UNL1        0.1498
     11 C         143.3303  135.9027  155.6852 C.ar    1  UNL1        0.2014
     12 C         142.4705  135.7580  154.4647 C.ar    1  UNL1        0.0843
     13 C         142.3067  134.4147  153.8176 C.ar    1  UNL1        0.2018
     14 O         141.4469  134.2700  152.5971 O.2     1  UNL1       -0.2864
     15 C         143.0028  133.2160  154.3910 C.ar    1  UNL1        0.0737
     16 C         142.8391  131.8728  153.7439 C.ar    1  UNL1        0.0085
     17 C         143.5351  130.6742  154.3174 C.ar    1  UNL1        0.0299
     18 C         144.3950  130.8189  155.5379 C.ar    1  UNL1        0.1432
     19 F         145.0911  129.6203  156.1113 F       1  UNL1       -0.2041
     20 C         144.5587  132.1622  156.1850 C.ar    1  UNL1        0.0672
     21 C         143.8627  133.3607  155.6116 C.ar    1  UNL1        0.1508
     22 O         144.0264  134.7041  156.2587 O.2     1  UNL1       -0.4486
     23 C         143.2691  143.0097  160.0712 C.3     1  UNL1        0.1001
     24 C         142.2546  143.4920  161.0652 C.ar    1  UNL1        0.0077
     25 C         140.7930  143.2657  160.8150 C.ar    1  UNL1        0.0381
     26 C         139.7784  143.7480  161.8090 C.ar    1  UNL1        0.1762
     27 C         140.2254  144.4566  163.0532 C.ar    1  UNL1        0.1772
     28 C         141.6869  144.6829  163.3034 C.ar    1  UNL1        0.0513
     29 C         142.7015  144.2006  162.3094 C.ar    1  UNL1        0.0582
     30 CL        144.1631  144.4269  162.5597 Cl      1  UNL1       -0.0824
     31 O         139.0039  144.8161  163.8460 O.3     1  UNL1       -0.4346
     32 C         137.8019  144.3297  163.0918 C.3     1  UNL1        0.4294
     33 O         138.2806  143.6696  161.8328 O.3     1  UNL1       -0.4346
@<TRIPOS>BOND
     1     7     8    2
     2     8     9   am
     3     9     1    1
     4     1     2    1
     5     2     3    1
     6     3     4    1
     7     4    23    1
     8    23    24    1
     9    24    25   ar
    10    25    26   ar
    11    26    27   ar
    12    27    28   ar
    13    28    29   ar
    14    29    30    1
    15    27    31    1
    16    31    32    1
    17    32    33    1
    18     4     5    1
    19     5     6    1
    20     8    11    1
    21    11    12   ar
    22    12    13   ar
    23    13    14    2
    24    13    15   ar
    25    15    16   ar
    26    16    17   ar
    27    17    18   ar
    28    18    19    1
    29    18    20   ar
    30    20    21   ar
    31    21    22   ar
    32     6     1    1
    33    22    11   ar
    34    29    24   ar
    35    21    15   ar
    36    33    26    1
    37     9    10    1
@<TRIPOS>MOLECULE
*****
 33 37 0 0 0
SMALL
GASTEIGER

@<TRIPOS>ATOM
      1 C         143.5224  142.3992  161.3632 C.3     1  UNL1        0.0747
      2 C         144.0827  143.3975  162.3324 C.3     1  UNL1        0.0369
      3 C         143.3466  143.7042  163.6028 C.3     1  UNL1        0.0741
      4 N         142.0501  143.0125  163.9041 N.3     1  UNL1       -0.2688
      5 C         141.4897  142.0142  162.9349 C.3     1  UNL1        0.0741
      6 C         142.2259  141.7076  161.6644 C.3     1  UNL1        0.0369
      7 O         142.9574  143.9873  158.8815 O.2     1  UNL1       -0.2668
      8 C         143.9760  142.8866  158.8519 C.2     1  UNL1        0.2806
      9 N         144.2585  142.0925  160.0927 N.am    1  UNL1       -0.2999
     10 H         144.9270  141.3701  160.0733 H       1  UNL1        0.1498
     11 C         144.7122  142.5799  157.5814 C.ar    1  UNL1        0.2014
     12 C         143.9485  142.2940  156.3224 C.ar    1  UNL1        0.0843
     13 C         144.6845  141.9873  155.0520 C.ar    1  UNL1        0.2018
     14 O         143.9208  141.7014  153.7930 O.2     1  UNL1       -0.2864
     15 C         146.1844  141.9665  155.0405 C.ar    1  UNL1        0.0737
     16 C         146.9205  141.6598  153.7700 C.ar    1  UNL1        0.0085
     17 C         148.4203  141.6390  153.7586 C.ar    1  UNL1        0.0299
     18 C         149.1840  141.9249  155.0175 C.ar    1  UNL1        0.1432
     19 F         150.6838  141.9041  155.0060 F       1  UNL1       -0.2041
     20 C         148.4479  142.2316  156.2880 C.ar    1  UNL1        0.0672
     21 C         146.9481  142.2524  156.2994 C.ar    1  UNL1        0.1508
     22 O         146.2119  142.5591  157.5699 O.2     1  UNL1       -0.4486
     23 C         141.3140  143.3192  165.1746 C.3     1  UNL1        0.1001
     24 C         141.2528  142.2976  166.2712 C.ar    1  UNL1        0.0077
     25 C         142.3894  142.1701  167.2417 C.ar    1  UNL1        0.0381
     26 C         142.3282  141.1486  168.3384 C.ar    1  UNL1        0.1762
     27 C         141.1305  140.2545  168.4645 C.ar    1  UNL1        0.1772
     28 C         139.9939  140.3819  167.4940 C.ar    1  UNL1        0.0513
     29 C         140.0551  141.4035  166.3974 C.ar    1  UNL1        0.0582
     30 CL        138.9184  141.5309  165.4268 Cl      1  UNL1       -0.0824
     31 O         141.3509  139.3473  169.6386 O.3     1  UNL1       -0.4346
     32 C         142.6849  139.6807  170.2381 C.3     1  UNL1        0.4294
     33 O         143.2889  140.7940  169.4345 O.3     1  UNL1       -0.4346
@<TRIPOS>BOND
     1     7     8    2
     2     8     9   am
     3     9     1    1
     4     1     2    1
     5     2     3    1
     6     3     4    1
     7     4    23    1
     8    23    24    1
     9    24    25   ar
    10    25    26   ar
    11    26    27   ar
    12    27    28   ar
    13    28    29   ar
    14    29    30    1
    15    27    31    1
    16    31    32    1
    17    32    33    1
    18     4     5    1
    19     5     6    1
    20     8    11    1
    21    11    12   ar
    22    12    13   ar
    23    13    14    2
    24    13    15   ar
    25    15    16   ar
    26    16    17   ar
    27    17    18   ar
    28    18    19    1
    29    18    20   ar
    30    20    21   ar
    31    21    22   ar
    32     6     1    1
    33    22    11   ar
    34    29    24   ar
    35    21    15   ar
    36    33    26    1
    37     9    10    1
@<TRIPOS>MOLECULE
*****
 33 37 0 0 0
SMALL
GASTEIGER

@<TRIPOS>ATOM
      1 C         140.8850  138.4288  161.4724 C.3     1  UNL1        0.0747
      2 C         142.2727  138.1193  160.9944 C.3     1  UNL1        0.0369
      3 C         142.5455  137.9740  159.5266 C.3     1  UNL1        0.0741
      4 N         141.4304  138.1380  158.5367 N.3     1  UNL1       -0.2688
      5 C         140.0427  138.4474  159.0147 C.3     1  UNL1        0.0741
      6 C         139.7700  138.5928  160.4826 C.3     1  UNL1        0.0369
      7 O         140.3330  141.1390  162.6343 O.2     1  UNL1       -0.2668
      8 C         140.3363  139.9292  163.5211 C.2     1  UNL1        0.2806
      9 N         140.6123  138.5741  162.9402 N.am    1  UNL1       -0.2999
     10 H         140.6144  137.7801  163.5222 H       1  UNL1        0.1498
     11 C         140.0636  140.0745  164.9890 C.ar    1  UNL1        0.2014
     12 C         139.0377  139.2032  165.6511 C.ar    1  UNL1        0.0843
     13 C         138.7650  139.3484  167.1189 C.ar    1  UNL1        0.2018
     14 O         137.7392  138.4770  167.7810 O.2     1  UNL1       -0.2864
     15 C         139.5181  140.3652  167.9247 C.ar    1  UNL1        0.0737
     16 C         139.2453  140.5104  169.3925 C.ar    1  UNL1        0.0085
     17 C         139.9984  141.5271  170.1982 C.ar    1  UNL1        0.0299
     18 C         141.0242  142.3985  169.5361 C.ar    1  UNL1        0.1432
     19 F         141.7773  143.4152  170.3419 F       1  UNL1       -0.2041
     20 C         141.2970  142.2532  168.0683 C.ar    1  UNL1        0.0672
     21 C         140.5439  141.2365  167.2626 C.ar    1  UNL1        0.1508
     22 O         140.8166  141.0912  165.7947 O.2     1  UNL1       -0.4486
     23 C         141.7031  137.9927  157.0689 C.3     1  UNL1        0.1001
     24 C         142.8731  138.6984  156.4500 C.ar    1  UNL1        0.0077
     25 C         143.0434  140.1765  156.6397 C.ar    1  UNL1        0.0381
     26 C         144.2134  140.8823  156.0207 C.ar    1  UNL1        0.1762
     27 C         145.2130  140.1099  155.2120 C.ar    1  UNL1        0.1772
     28 C         145.0427  138.6317  155.0223 C.ar    1  UNL1        0.0513
     29 C         143.8728  137.9260  155.6413 C.ar    1  UNL1        0.0582
     30 CL        143.7025  136.4477  155.4516 Cl      1  UNL1       -0.0824
     31 O         146.2579  141.0703  154.7264 O.3     1  UNL1       -0.4346
     32 C         145.9039  142.4364  155.2350 C.3     1  UNL1        0.4294
     33 O         144.6403  142.3202  156.0349 O.3     1  UNL1       -0.4346
@<TRIPOS>BOND
     1     7     8    2
     2     8     9   am
     3     9     1    1
     4     1     2    1
     5     2     3    1
     6     3     4    1
     7     4    23    1
     8    23    24    1
     9    24    25   ar
    10    25    26   ar
    11    26    27   ar
    12    27    28   ar
    13    28    29   ar
    14    29    30    1
    15    27    31    1
    16    31    32    1
    17    32    33    1
    18     4     5    1
    19     5     6    1
    20     8    11    1
    21    11    12   ar
    22    12    13   ar
    23    13    14    2
    24    13    15   ar
    25    15    16   ar
    26    16    17   ar
    27    17    18   ar
    28    18    19    1
    29    18    20   ar
    30    20    21   ar
    31    21    22   ar
    32     6     1    1
    33    22    11   ar
    34    29    24   ar
    35    21    15   ar
    36    33    26    1
    37     9    10    1
@<TRIPOS>MOLECULE
*****
 33 37 0 0 0
SMALL
GASTEIGER

@<TRIPOS>ATOM
      1 C         141.1788  139.1644  159.6026 C.3     1  UNL1        0.0747
      2 C         139.9314  138.6800  158.9247 C.3     1  UNL1        0.0369
      3 C         140.0289  137.8469  157.6812 C.3     1  UNL1        0.0741
      4 N         141.3737  137.4982  157.1155 N.3     1  UNL1       -0.2688
      5 C         142.6210  137.9826  157.7934 C.3     1  UNL1        0.0741
      6 C         142.5235  138.8158  159.0370 C.3     1  UNL1        0.0369
      7 O         140.7642  137.8439  162.2643 O.2     1  UNL1       -0.2668
      8 C         140.8740  139.3372  162.1770 C.2     1  UNL1        0.2806
      9 N         141.0813  139.9975  160.8462 N.am    1  UNL1       -0.2999
     10 H         141.1534  140.9777  160.7889 H       1  UNL1        0.1498
     11 C         140.7766  140.1704  163.4205 C.ar    1  UNL1        0.2014
     12 C         139.7242  141.2336  163.5304 C.ar    1  UNL1        0.0843
     13 C         139.6267  142.0668  164.7739 C.ar    1  UNL1        0.2018
     14 O         138.5742  143.1299  164.8837 O.2     1  UNL1       -0.2864
     15 C         140.5817  141.8368  165.9076 C.ar    1  UNL1        0.0737
     16 C         140.4842  142.6700  167.1510 C.ar    1  UNL1        0.0085
     17 C         141.4391  142.4400  168.2846 C.ar    1  UNL1        0.0299
     18 C         142.4916  141.3768  168.1748 C.ar    1  UNL1        0.1432
     19 F         143.4466  141.1469  169.3085 F       1  UNL1       -0.2041
     20 C         142.5891  140.5437  166.9313 C.ar    1  UNL1        0.0672
     21 C         141.6341  140.7736  165.7977 C.ar    1  UNL1        0.1508
     22 O         141.7316  139.9405  164.5541 O.2     1  UNL1       -0.4486
     23 C         141.4711  136.6651  155.8720 C.3     1  UNL1        0.1001
     24 C         142.2760  135.3993  155.8784 C.ar    1  UNL1        0.0077
     25 C         143.0583  135.0141  157.0988 C.ar    1  UNL1        0.0381
     26 C         143.8631  133.7483  157.1053 C.ar    1  UNL1        0.1762
     27 C         143.8856  132.8677  155.8912 C.ar    1  UNL1        0.1772
     28 C         143.1032  133.2529  154.6708 C.ar    1  UNL1        0.0513
     29 C         142.2984  134.5187  154.6644 C.ar    1  UNL1        0.0582
     30 CL        141.5160  134.9038  153.4438 Cl      1  UNL1       -0.0824
     31 O         144.7640  131.6891  156.1897 O.3     1  UNL1       -0.4346
     32 C         145.2845  131.8412  157.5883 C.3     1  UNL1        0.4294
     33 O         144.7277  133.1139  158.1542 O.3     1  UNL1       -0.4346
@<TRIPOS>BOND
     1     7     8    2
     2     8     9   am
     3     9     1    1
     4     1     2    1
     5     2     3    1
     6     3     4    1
     7     4    23    1
     8    23    24    1
     9    24    25   ar
    10    25    26   ar
    11    26    27   ar
    12    27    28   ar
    13    28    29   ar
    14    29    30    1
    15    27    31    1
    16    31    32    1
    17    32    33    1
    18     4     5    1
    19     5     6    1
    20     8    11    1
    21    11    12   ar
    22    12    13   ar
    23    13    14    2
    24    13    15   ar
    25    15    16   ar
    26    16    17   ar
    27    17    18   ar
    28    18    19    1
    29    18    20   ar
    30    20    21   ar
    31    21    22   ar
    32     6     1    1
    33    22    11   ar
    34    29    24   ar
    35    21    15   ar
    36    33    26    1
    37     9    10    1
