@<TRIPOS>MOLECULE
*****
 28 33 0 0 0
SMALL
GASTEIGER

@<TRIPOS>ATOM
      1 N         138.4996  144.1636  164.2850 N.pl3   1  UNL1       -0.3133
      2 C         138.4928  143.2666  163.0827 C.2     1  UNL1        0.2770
      3 N         138.6262  141.7727  163.0966 N.2     1  UNL1       -0.2204
      4 C         138.5673  141.2889  161.6779 C.3     1  UNL1        0.1537
      5 C         138.3975  142.4840  160.7874 C.3     1  UNL1        0.2350
      6 O         138.3515  143.7062  161.6556 O.2     1  UNL1       -0.4478
      7 C         138.7369  140.1942  162.6893 C.ar    1  UNL1        0.0355
      8 C         138.8121  140.5275  164.1498 C.ar    1  UNL1        0.0007
      9 C         138.9817  139.4328  165.1612 C.ar    1  UNL1        0.0014
     10 C         139.0760  138.0047  164.7120 C.ar    1  UNL1        0.0031
     11 C         139.0007  137.6714  163.2514 C.ar    1  UNL1        0.0366
     12 C         138.8312  138.7661  162.2401 C.ar    1  UNL1        0.1364
     13 O         138.7559  138.4328  160.7795 O.3     1  UNL1       -0.4756
     14 C         138.5864  139.5275  159.7682 C.3     1  UNL1        0.2074
     15 C         138.4921  140.9556  160.2174 C.3     1  UNL1        0.0666
     16 C         138.3397  142.4121  159.8928 C.3     1  UNL1        0.0061
     17 C         138.3507  141.3952  158.7902 C.3     1  UNL1        0.0061
     18 H         138.5983  143.7787  165.1858 H       1  UNL1        0.1466
     19 H         138.4053  145.1372  164.1734 H       1  UNL1        0.1466
     20 C         139.0569  139.7661  166.6218 C.ar    1  UNL1        0.0189
     21 C         138.0979  139.1331  167.5859 C.ar    1  UNL1        0.0988
     22 N         138.1731  139.4665  169.0464 N.ar    1  UNL1       -0.2426
     23 C         139.2074  140.4328  169.5429 C.ar    1  UNL1        0.0946
     24 C         140.1665  141.0658  168.5787 C.ar    1  UNL1       -0.0033
     25 C         140.0912  140.7324  167.1181 C.ar    1  UNL1       -0.0012
     26 C         141.2008  142.0321  169.0751 C.3     1  UNL1        0.0239
     27 C         142.6238  142.5048  169.1152 C.3     1  UNL1        0.0047
     28 C         141.5693  143.2330  169.8949 C.3     1  UNL1        0.0047
@<TRIPOS>BOND
     1     1     2    1
     2     2     3    2
     3     3     4    1
     4     4     5    1
     5     5     6    1
     6     4     7    1
     7     7     8   ar
     8     8     9   ar
     9     9    20    1
    10    20    21   ar
    11    21    22   ar
    12    22    23   ar
    13    23    24   ar
    14    24    26    1
    15    26    27    1
    16    27    28    1
    17    24    25   ar
    18     9    10   ar
    19    10    11   ar
    20    11    12   ar
    21    12    13    1
    22    13    14    1
    23    14    15    1
    24    15    16    1
    25    16    17    1
    26     6     2    1
    27    12     7   ar
    28    17    15    1
    29    15     4    1
    30    25    20   ar
    31    28    26    1
    32     1    18    1
    33     1    19    1
@<TRIPOS>MOLECULE
*****
 28 33 0 0 0
SMALL
GASTEIGER

@<TRIPOS>ATOM
      1 N         143.3724  141.8041  164.7642 N.pl3   1  UNL1       -0.3133
      2 C         142.7616  141.7462  166.1331 C.2     1  UNL1        0.2770
      3 N         141.5127  141.0063  166.5106 N.2     1  UNL1       -0.2204
      4 C         141.2718  141.2209  167.9756 C.3     1  UNL1        0.1537
      5 C         142.3719  142.0935  168.5032 C.3     1  UNL1        0.2350
      6 O         143.2926  142.4181  167.3646 O.2     1  UNL1       -0.4478
      7 C         140.2416  140.3591  167.3076 C.ar    1  UNL1        0.0355
      8 C         140.3521  140.0571  165.8425 C.ar    1  UNL1        0.0007
      9 C         139.3219  139.1953  165.1746 C.ar    1  UNL1        0.0014
     10 C         138.1812  138.6356  165.9718 C.ar    1  UNL1        0.0031
     11 C         138.0707  138.9376  167.4369 C.ar    1  UNL1        0.0366
     12 C         139.1009  139.7994  168.1048 C.ar    1  UNL1        0.1364
     13 O         138.9904  140.1014  169.5700 O.3     1  UNL1       -0.4756
     14 C         140.0206  140.9632  170.2378 C.3     1  UNL1        0.2074
     15 C         141.1613  141.5229  169.4406 C.3     1  UNL1        0.0666
     16 C         142.4146  142.3436  169.3660 C.3     1  UNL1        0.0061
     17 C         141.6923  142.1948  170.6721 C.3     1  UNL1        0.0061
     18 H         142.9476  141.3272  164.0150 H       1  UNL1        0.1466
     19 H         144.1981  142.3191  164.6150 H       1  UNL1        0.1466
     20 C         139.4324  138.8933  163.7095 C.ar    1  UNL1        0.0189
     21 C         138.2053  138.9037  162.8469 C.ar    1  UNL1        0.0988
     22 N         138.3158  138.6017  161.3818 N.ar    1  UNL1       -0.2426
     23 C         139.6535  138.2892  160.7792 C.ar    1  UNL1        0.0946
     24 C         140.8806  138.2788  161.6418 C.ar    1  UNL1       -0.0033
     25 C         140.7701  138.5808  163.1070 C.ar    1  UNL1       -0.0012
     26 C         142.2183  137.9663  161.0393 C.3     1  UNL1        0.0239
     27 C         143.7054  137.8279  161.1786 C.3     1  UNL1        0.0047
     28 C         143.0481  137.5636  159.8564 C.3     1  UNL1        0.0047
@<TRIPOS>BOND
     1     1     2    1
     2     2     3    2
     3     3     4    1
     4     4     5    1
     5     5     6    1
     6     4     7    1
     7     7     8   ar
     8     8     9   ar
     9     9    20    1
    10    20    21   ar
    11    21    22   ar
    12    22    23   ar
    13    23    24   ar
    14    24    26    1
    15    26    27    1
    16    27    28    1
    17    24    25   ar
    18     9    10   ar
    19    10    11   ar
    20    11    12   ar
    21    12    13    1
    22    13    14    1
    23    14    15    1
    24    15    16    1
    25    16    17    1
    26     6     2    1
    27    12     7   ar
    28    17    15    1
    29    15     4    1
    30    25    20   ar
    31    28    26    1
    32     1    18    1
    33     1    19    1
@<TRIPOS>MOLECULE
*****
 28 33 0 0 0
SMALL
GASTEIGER

@<TRIPOS>ATOM
      1 N         144.2508  141.9554  165.0861 N.pl3   1  UNL1       -0.3133
      2 C         143.8272  141.1211  163.9137 C.2     1  UNL1        0.2770
      3 N         142.6347  140.2126  163.8631 N.2     1  UNL1       -0.2204
      4 C         142.5923  139.5789  162.5041 C.3     1  UNL1        0.1537
      5 C         143.7585  140.0958  161.7149 C.3     1  UNL1        0.2350
      6 O         144.5217  141.0489  162.5861 O.2     1  UNL1       -0.4478
      7 C         141.4767  139.1520  163.4115 C.ar    1  UNL1        0.0355
      8 C         141.3894  139.7038  164.8035 C.ar    1  UNL1        0.0007
      9 C         140.2738  139.2770  165.7110 C.ar    1  UNL1        0.0014
     10 C         139.2456  138.2982  165.2263 C.ar    1  UNL1        0.0031
     11 C         139.3330  137.7463  163.8342 C.ar    1  UNL1        0.0366
     12 C         140.4486  138.1732  162.9268 C.ar    1  UNL1        0.1364
     13 O         140.5360  137.6213  161.5347 O.3     1  UNL1       -0.4756
     14 C         141.6515  138.0482  160.6274 C.3     1  UNL1        0.2074
     15 C         142.6796  139.0270  161.1121 C.3     1  UNL1        0.0666
     16 C         143.9173  139.8385  160.8680 C.3     1  UNL1        0.0061
     17 C         143.3741  138.9548  159.7845 C.3     1  UNL1        0.0061
     18 H         143.7269  141.9353  165.9195 H       1  UNL1        0.1466
     19 H         145.0527  142.5230  165.0223 H       1  UNL1        0.1466
     20 C         140.1864  139.8288  167.1030 C.ar    1  UNL1        0.0189
     21 C         138.9666  139.5708  167.9369 C.ar    1  UNL1        0.0988
     22 N         138.8792  140.1227  169.3289 N.ar    1  UNL1       -0.2426
     23 C         140.0118  140.9326  169.8871 C.ar    1  UNL1        0.0946
     24 C         141.2316  141.1906  169.0532 C.ar    1  UNL1       -0.0033
     25 C         141.3189  140.6387  167.6611 C.ar    1  UNL1       -0.0012
     26 C         142.3641  142.0005  169.6113 C.3     1  UNL1        0.0239
     27 C         143.8303  142.3103  169.6779 C.3     1  UNL1        0.0047
     28 C         142.8595  143.0934  170.5113 C.3     1  UNL1        0.0047
@<TRIPOS>BOND
     1     1     2    1
     2     2     3    2
     3     3     4    1
     4     4     5    1
     5     5     6    1
     6     4     7    1
     7     7     8   ar
     8     8     9   ar
     9     9    20    1
    10    20    21   ar
    11    21    22   ar
    12    22    23   ar
    13    23    24   ar
    14    24    26    1
    15    26    27    1
    16    27    28    1
    17    24    25   ar
    18     9    10   ar
    19    10    11   ar
    20    11    12   ar
    21    12    13    1
    22    13    14    1
    23    14    15    1
    24    15    16    1
    25    16    17    1
    26     6     2    1
    27    12     7   ar
    28    17    15    1
    29    15     4    1
    30    25    20   ar
    31    28    26    1
    32     1    18    1
    33     1    19    1
@<TRIPOS>MOLECULE
*****
 28 33 0 0 0
SMALL
GASTEIGER

@<TRIPOS>ATOM
      1 N         139.1190  144.7745  165.2286 N.pl3   1  UNL1       -0.3133
      2 C         139.7588  144.7091  163.8734 C.2     1  UNL1        0.2770
      3 N         140.8805  143.7982  163.4711 N.2     1  UNL1       -0.2204
      4 C         141.2042  144.0694  162.0317 C.3     1  UNL1        0.1537
      5 C         140.2825  145.1479  161.5446 C.3     1  UNL1        0.2350
      6 O         139.3893  145.5433  162.6828 O.2     1  UNL1       -0.4478
      7 C         142.0540  143.0036  162.6579 C.ar    1  UNL1        0.0355
      8 C         141.8444  142.6247  164.0940 C.ar    1  UNL1        0.0007
      9 C         142.6942  141.5589  164.7201 C.ar    1  UNL1        0.0014
     10 C         143.7536  140.8721  163.9102 C.ar    1  UNL1        0.0031
     11 C         143.9632  141.2511  162.4740 C.ar    1  UNL1        0.0366
     12 C         143.1134  142.3169  161.8479 C.ar    1  UNL1        0.1364
     13 O         143.3230  142.6959  160.4117 O.3     1  UNL1       -0.4756
     14 C         142.4732  143.7616  159.7856 C.3     1  UNL1        0.2074
     15 C         141.4139  144.4484  160.5956 C.3     1  UNL1        0.0666
     16 C         140.3116  145.4602  160.7017 C.3     1  UNL1        0.0061
     17 C         141.0443  145.2825  159.4050 C.3     1  UNL1        0.0061
     18 H         139.4329  144.1829  165.9502 H       1  UNL1        0.1466
     19 H         138.3851  145.4089  165.3964 H       1  UNL1        0.1466
     20 C         142.4845  141.1799  166.1562 C.ar    1  UNL1        0.0189
     21 C         143.0252  139.8807  166.6757 C.ar    1  UNL1        0.0988
     22 N         142.8156  139.5017  168.1118 N.ar    1  UNL1       -0.2426
     23 C         142.0652  140.4220  169.0285 C.ar    1  UNL1        0.0946
     24 C         141.5246  141.7211  168.5090 C.ar    1  UNL1       -0.0033
     25 C         141.7342  142.1001  167.0729 C.ar    1  UNL1       -0.0012
     26 C         140.7742  142.6413  169.4256 C.3     1  UNL1        0.0239
     27 C         139.8089  142.8464  170.5553 C.3     1  UNL1        0.0047
     28 C         140.4400  144.0300  169.8837 C.3     1  UNL1        0.0047
@<TRIPOS>BOND
     1     1     2    1
     2     2     3    2
     3     3     4    1
     4     4     5    1
     5     5     6    1
     6     4     7    1
     7     7     8   ar
     8     8     9   ar
     9     9    20    1
    10    20    21   ar
    11    21    22   ar
    12    22    23   ar
    13    23    24   ar
    14    24    26    1
    15    26    27    1
    16    27    28    1
    17    24    25   ar
    18     9    10   ar
    19    10    11   ar
    20    11    12   ar
    21    12    13    1
    22    13    14    1
    23    14    15    1
    24    15    16    1
    25    16    17    1
    26     6     2    1
    27    12     7   ar
    28    17    15    1
    29    15     4    1
    30    25    20   ar
    31    28    26    1
    32     1    18    1
    33     1    19    1
@<TRIPOS>MOLECULE
*****
 28 33 0 0 0
SMALL
GASTEIGER

@<TRIPOS>ATOM
      1 N         143.6252  141.9408  165.0743 N.pl3   1  UNL1       -0.3133
      2 C         142.9103  141.8303  166.3884 C.2     1  UNL1        0.2770
      3 N         141.6450  141.0656  166.6421 N.2     1  UNL1       -0.2204
      4 C         141.2879  141.2278  168.0900 C.3     1  UNL1        0.1537
      5 C         142.3325  142.0926  168.7310 C.3     1  UNL1        0.2350
      6 O         143.3351  142.4650  167.6794 O.2     1  UNL1       -0.4478
      7 C         140.3238  140.3792  167.3150 C.ar    1  UNL1        0.0355
      8 C         140.5520  140.1285  165.8539 C.ar    1  UNL1        0.0007
      9 C         139.5879  139.2799  165.0790 C.ar    1  UNL1        0.0014
     10 C         138.3955  138.6821  165.7653 C.ar    1  UNL1        0.0031
     11 C         138.1673  138.9329  167.2265 C.ar    1  UNL1        0.0366
     12 C         139.1314  139.7815  168.0013 C.ar    1  UNL1        0.1364
     13 O         138.9032  140.0323  169.4626 O.3     1  UNL1       -0.4756
     14 C         139.8674  140.8808  170.2374 C.3     1  UNL1        0.2074
     15 C         141.0597  141.4786  169.5511 C.3     1  UNL1        0.0666
     16 C         142.3047  142.3136  169.6023 C.3     1  UNL1        0.0061
     17 C         141.4846  142.1133  170.8421 C.3     1  UNL1        0.0061
     18 H         143.2661  141.4855  164.2787 H       1  UNL1        0.1466
     19 H         144.4535  142.4687  165.0074 H       1  UNL1        0.1466
     20 C         139.8161  139.0291  163.6178 C.ar    1  UNL1        0.0189
     21 C         140.6171  137.8400  163.1771 C.ar    1  UNL1        0.0988
     22 N         140.8454  137.5892  161.7160 N.ar    1  UNL1       -0.2426
     23 C         140.2725  138.5276  160.6955 C.ar    1  UNL1        0.0946
     24 C         139.4714  139.7167  161.1362 C.ar    1  UNL1       -0.0033
     25 C         139.2432  139.9675  162.5974 C.ar    1  UNL1       -0.0012
     26 C         138.8986  140.6551  160.1158 C.3     1  UNL1        0.0239
     27 C         138.2279  140.8846  158.7938 C.3     1  UNL1        0.0047
     28 C         138.5770  142.0508  159.6703 C.3     1  UNL1        0.0047
@<TRIPOS>BOND
     1     1     2    1
     2     2     3    2
     3     3     4    1
     4     4     5    1
     5     5     6    1
     6     4     7    1
     7     7     8   ar
     8     8     9   ar
     9     9    20    1
    10    20    21   ar
    11    21    22   ar
    12    22    23   ar
    13    23    24   ar
    14    24    26    1
    15    26    27    1
    16    27    28    1
    17    24    25   ar
    18     9    10   ar
    19    10    11   ar
    20    11    12   ar
    21    12    13    1
    22    13    14    1
    23    14    15    1
    24    15    16    1
    25    16    17    1
    26     6     2    1
    27    12     7   ar
    28    17    15    1
    29    15     4    1
    30    25    20   ar
    31    28    26    1
    32     1    18    1
    33     1    19    1
@<TRIPOS>MOLECULE
*****
 28 33 0 0 0
SMALL
GASTEIGER

@<TRIPOS>ATOM
      1 N         144.0111  140.7797  161.9022 N.pl3   1  UNL1       -0.3133
      2 C         143.3888  141.8350  161.0365 C.2     1  UNL1        0.2770
      3 N         142.2445  142.7265  161.4181 N.2     1  UNL1       -0.2204
      4 C         141.9503  143.6265  160.2547 C.3     1  UNL1        0.1537
      5 C         142.9127  143.2911  159.1541 C.3     1  UNL1        0.2350
      6 O         143.8018  142.1839  159.6373 O.2     1  UNL1       -0.4478
      7 C         141.0581  143.8497  161.4397 C.ar    1  UNL1        0.0355
      8 C         141.2350  143.0221  162.6781 C.ar    1  UNL1        0.0007
      9 C         140.3428  143.2453  163.8632 C.ar    1  UNL1        0.0014
     10 C         139.2738  144.2961  163.8098 C.ar    1  UNL1        0.0031
     11 C         139.0969  145.1238  162.5712 C.ar    1  UNL1        0.0366
     12 C         139.9890  144.9005  161.3863 C.ar    1  UNL1        0.1364
     13 O         139.8121  145.7282  160.1478 O.3     1  UNL1       -0.4756
     14 C         140.7043  145.5049  158.9628 C.3     1  UNL1        0.2074
     15 C         141.7733  144.4541  159.0162 C.3     1  UNL1        0.0666
     16 C         142.9056  143.7185  158.3629 C.3     1  UNL1        0.0061
     17 C         142.1863  144.8030  157.6171 C.3     1  UNL1        0.0061
     18 H         143.6682  140.6240  162.8118 H       1  UNL1        0.1466
     19 H         144.7623  140.2428  161.5607 H       1  UNL1        0.1466
     20 C         140.5198  142.4177  165.1016 C.ar    1  UNL1        0.0189
     21 C         140.8758  140.9650  164.9883 C.ar    1  UNL1        0.0988
     22 N         141.0527  140.1374  166.2268 N.ar    1  UNL1       -0.2426
     23 C         140.8736  140.7625  167.5785 C.ar    1  UNL1        0.0946
     24 C         140.5175  142.2152  167.6918 C.ar    1  UNL1       -0.0033
     25 C         140.3406  143.0428  166.4533 C.ar    1  UNL1       -0.0012
     26 C         140.3384  142.8403  169.0435 C.3     1  UNL1        0.0239
     27 C         140.4594  144.0279  169.9519 C.3     1  UNL1        0.0047
     28 C         139.9072  142.7355  170.4763 C.3     1  UNL1        0.0047
@<TRIPOS>BOND
     1     1     2    1
     2     2     3    2
     3     3     4    1
     4     4     5    1
     5     5     6    1
     6     4     7    1
     7     7     8   ar
     8     8     9   ar
     9     9    20    1
    10    20    21   ar
    11    21    22   ar
    12    22    23   ar
    13    23    24   ar
    14    24    26    1
    15    26    27    1
    16    27    28    1
    17    24    25   ar
    18     9    10   ar
    19    10    11   ar
    20    11    12   ar
    21    12    13    1
    22    13    14    1
    23    14    15    1
    24    15    16    1
    25    16    17    1
    26     6     2    1
    27    12     7   ar
    28    17    15    1
    29    15     4    1
    30    25    20   ar
    31    28    26    1
    32     1    18    1
    33     1    19    1
@<TRIPOS>MOLECULE
*****
 28 33 0 0 0
SMALL
GASTEIGER

@<TRIPOS>ATOM
      1 N         138.3428  139.1234  166.2755 N.pl3   1  UNL1       -0.3133
      2 C         139.2009  139.7584  167.3294 C.2     1  UNL1        0.2770
      3 N         140.4394  140.5692  167.0872 N.2     1  UNL1       -0.2204
      4 C         140.9751  141.0059  168.4185 C.3     1  UNL1        0.1537
      5 C         140.0676  140.4651  169.4834 C.3     1  UNL1        0.2350
      6 O         138.9711  139.6941  168.8102 O.2     1  UNL1       -0.4478
      7 C         141.7880  141.4774  167.2493 C.ar    1  UNL1        0.0355
      8 C         141.3732  141.1173  165.8535 C.ar    1  UNL1        0.0007
      9 C         142.1860  141.5888  164.6843 C.ar    1  UNL1        0.0014
     10 C         143.4137  142.4204  164.9109 C.ar    1  UNL1        0.0031
     11 C         143.8284  142.7805  166.3068 C.ar    1  UNL1        0.0366
     12 C         143.0156  142.3090  167.4760 C.ar    1  UNL1        0.1364
     13 O         143.4304  142.6691  168.8718 O.3     1  UNL1       -0.4756
     14 C         142.6175  142.1976  170.0410 C.3     1  UNL1        0.2074
     15 C         141.3899  141.3660  169.8143 C.3     1  UNL1        0.0666
     16 C         140.2118  140.6137  170.3585 C.3     1  UNL1        0.0061
     17 C         141.1600  141.3017  171.2952 C.3     1  UNL1        0.0061
     18 H         138.5770  139.2224  165.3244 H       1  UNL1        0.1466
     19 H         137.5453  138.6076  166.5350 H       1  UNL1        0.1466
     20 C         141.7713  141.2287  163.2885 C.ar    1  UNL1        0.0189
     21 C         142.6813  141.5290  162.1346 C.ar    1  UNL1        0.0988
     22 N         142.2666  141.1689  160.7388 N.ar    1  UNL1       -0.2426
     23 C         140.9416  140.5085  160.4969 C.ar    1  UNL1        0.0946
     24 C         140.0315  140.2082  161.6509 C.ar    1  UNL1       -0.0033
     25 C         140.4464  140.5683  163.0467 C.ar    1  UNL1       -0.0012
     26 C         138.7066  139.5478  161.4090 C.3     1  UNL1        0.0239
     27 C         137.3702  139.5276  160.7280 C.3     1  UNL1        0.0047
     28 C         137.7482  138.4241  161.6711 C.3     1  UNL1        0.0047
@<TRIPOS>BOND
     1     1     2    1
     2     2     3    2
     3     3     4    1
     4     4     5    1
     5     5     6    1
     6     4     7    1
     7     7     8   ar
     8     8     9   ar
     9     9    20    1
    10    20    21   ar
    11    21    22   ar
    12    22    23   ar
    13    23    24   ar
    14    24    26    1
    15    26    27    1
    16    27    28    1
    17    24    25   ar
    18     9    10   ar
    19    10    11   ar
    20    11    12   ar
    21    12    13    1
    22    13    14    1
    23    14    15    1
    24    15    16    1
    25    16    17    1
    26     6     2    1
    27    12     7   ar
    28    17    15    1
    29    15     4    1
    30    25    20   ar
    31    28    26    1
    32     1    18    1
    33     1    19    1
@<TRIPOS>MOLECULE
*****
 28 33 0 0 0
SMALL
GASTEIGER

@<TRIPOS>ATOM
      1 N         143.7361  142.3297  165.4061 N.pl3   1  UNL1       -0.3133
      2 C         142.9639  142.0930  166.6702 C.2     1  UNL1        0.2770
      3 N         141.7181  141.2679  166.8009 N.2     1  UNL1       -0.2204
      4 C         141.2862  141.3050  168.2370 C.3     1  UNL1        0.1537
      5 C         142.2652  142.1529  168.9937 C.3     1  UNL1        0.2350
      6 O         143.3020  142.6400  168.0254 O.2     1  UNL1       -0.4478
      7 C         140.3934  140.4863  167.3522 C.ar    1  UNL1        0.0355
      8 C         140.7006  140.3576  165.8897 C.ar    1  UNL1        0.0007
      9 C         139.8078  139.5390  165.0049 C.ar    1  UNL1        0.0014
     10 C         138.6077  138.8491  165.5828 C.ar    1  UNL1        0.0031
     11 C         138.3005  138.9779  167.0454 C.ar    1  UNL1        0.0366
     12 C         139.1933  139.7965  167.9300 C.ar    1  UNL1        0.1364
     13 O         138.8861  139.9252  169.3926 O.3     1  UNL1       -0.4756
     14 C         139.7789  140.7438  170.2773 C.3     1  UNL1        0.2074
     15 C         140.9790  141.4337  169.6995 C.3     1  UNL1        0.0666
     16 C         142.1873  142.3046  169.8767 C.3     1  UNL1        0.0061
     17 C         141.3171  141.9806  171.0547 C.3     1  UNL1        0.0061
     18 H         143.4331  141.9253  164.5612 H       1  UNL1        0.1466
     19 H         144.5459  142.8893  165.4214 H       1  UNL1        0.1466
     20 C         140.1150  139.4102  163.5424 C.ar    1  UNL1        0.0189
     21 C         139.3618  138.4222  162.7019 C.ar    1  UNL1        0.0988
     22 N         139.6691  138.2934  161.2394 N.ar    1  UNL1       -0.2426
     23 C         140.7295  139.1528  160.6173 C.ar    1  UNL1        0.0946
     24 C         141.4827  140.1409  161.4578 C.ar    1  UNL1       -0.0033
     25 C         141.1754  140.2696  162.9204 C.ar    1  UNL1       -0.0012
     26 C         142.5432  141.0002  160.8358 C.3     1  UNL1        0.0239
     27 C         143.0648  142.3577  160.4677 C.3     1  UNL1        0.0047
     28 C         143.8583  141.1313  160.1265 C.3     1  UNL1        0.0047
@<TRIPOS>BOND
     1     1     2    1
     2     2     3    2
     3     3     4    1
     4     4     5    1
     5     5     6    1
     6     4     7    1
     7     7     8   ar
     8     8     9   ar
     9     9    20    1
    10    20    21   ar
    11    21    22   ar
    12    22    23   ar
    13    23    24   ar
    14    24    26    1
    15    26    27    1
    16    27    28    1
    17    24    25   ar
    18     9    10   ar
    19    10    11   ar
    20    11    12   ar
    21    12    13    1
    22    13    14    1
    23    14    15    1
    24    15    16    1
    25    16    17    1
    26     6     2    1
    27    12     7   ar
    28    17    15    1
    29    15     4    1
    30    25    20   ar
    31    28    26    1
    32     1    18    1
    33     1    19    1
@<TRIPOS>MOLECULE
*****
 28 33 0 0 0
SMALL
GASTEIGER

@<TRIPOS>ATOM
      1 N         137.7251  138.6603  167.4671 N.pl3   1  UNL1       -0.3133
      2 C         138.7811  139.5073  168.1133 C.2     1  UNL1        0.2770
      3 N         139.9782  140.0980  167.4292 N.2     1  UNL1       -0.2204
      4 C         140.7623  140.8680  168.4502 C.3     1  UNL1        0.1537
      5 C         140.0499  140.7530  169.7652 C.3     1  UNL1        0.2350
      6 O         138.8255  139.9121  169.5570 O.2     1  UNL1       -0.4478
      7 C         141.3605  140.8938  167.0748 C.ar    1  UNL1        0.0355
      8 C         140.6856  140.1669  165.9497 C.ar    1  UNL1        0.0007
      9 C         141.2838  140.1927  164.5743 C.ar    1  UNL1        0.0014
     10 C         142.5569  140.9454  164.3241 C.ar    1  UNL1        0.0031
     11 C         143.2318  141.6724  165.4494 C.ar    1  UNL1        0.0366
     12 C         142.6336  141.6466  166.8247 C.ar    1  UNL1        0.1364
     13 O         143.3086  142.3735  167.9499 O.3     1  UNL1       -0.4756
     14 C         142.7104  142.3477  169.3252 C.3     1  UNL1        0.2074
     15 C         141.4373  141.5950  169.5753 C.3     1  UNL1        0.0666
     16 C         140.3569  141.1455  170.5138 C.3     1  UNL1        0.0061
     17 C         141.4816  141.9998  171.0190 C.3     1  UNL1        0.0061
     18 H         137.7835  138.4477  166.5076 H       1  UNL1        0.1466
     19 H         136.9736  138.3171  168.0025 H       1  UNL1        0.1466
     20 C         140.6088  139.4657  163.4492 C.ar    1  UNL1        0.0189
     21 C         139.2250  138.9171  163.6338 C.ar    1  UNL1        0.0988
     22 N         138.5501  138.1902  162.5087 N.ar    1  UNL1       -0.2426
     23 C         139.2590  138.0118  161.1988 C.ar    1  UNL1        0.0946
     24 C         140.6428  138.5605  161.0141 C.ar    1  UNL1       -0.0033
     25 C         141.3177  139.2874  162.1393 C.ar    1  UNL1       -0.0012
     26 C         141.3516  138.3822  159.7043 C.3     1  UNL1        0.0239
     27 C         142.6001  138.0657  158.9354 C.3     1  UNL1        0.0047
     28 C         141.3310  138.3898  158.2045 C.3     1  UNL1        0.0047
@<TRIPOS>BOND
     1     1     2    1
     2     2     3    2
     3     3     4    1
     4     4     5    1
     5     5     6    1
     6     4     7    1
     7     7     8   ar
     8     8     9   ar
     9     9    20    1
    10    20    21   ar
    11    21    22   ar
    12    22    23   ar
    13    23    24   ar
    14    24    26    1
    15    26    27    1
    16    27    28    1
    17    24    25   ar
    18     9    10   ar
    19    10    11   ar
    20    11    12   ar
    21    12    13    1
    22    13    14    1
    23    14    15    1
    24    15    16    1
    25    16    17    1
    26     6     2    1
    27    12     7   ar
    28    17    15    1
    29    15     4    1
    30    25    20   ar
    31    28    26    1
    32     1    18    1
    33     1    19    1
