@<TRIPOS>MOLECULE
*****
 31 34 0 0 0
SMALL
GASTEIGER

@<TRIPOS>ATOM
      1 C         140.2622  141.2966  159.5183 C.2     1  UNL1        0.0044
      2 C         139.0612  140.7420  160.2253 C.2     1  UNL1        0.0579
      3 C         139.1494  139.4208  160.9300 C.2     1  UNL1        0.2492
      4 O         139.4632  138.1762  160.1537 O.2     1  UNL1       -0.2699
      5 N         138.9238  139.3441  162.4109 N.am    1  UNL1       -0.2761
      6 C         138.6100  140.5886  163.1872 C.3     1  UNL1        0.0937
      7 C         138.3844  140.5119  164.6682 C.3     1  UNL1        0.0221
      8 C         138.4726  139.1907  165.3728 C.3     1  UNL1        0.0127
      9 C         138.7864  137.9461  164.5965 C.3     1  UNL1        0.0221
     10 C         139.0120  138.0228  163.1156 C.3     1  UNL1        0.0937
     11 C         138.2470  139.1141  166.8538 C.3     1  UNL1        0.0871
     12 C         139.2139  139.7696  167.7947 C.ar    1  UNL1        0.2261
     13 N         139.1016  139.8064  169.2900 N.ar    1  UNL1       -0.1117
     14 N         140.2812  140.5629  169.8250 N.ar    1  UNL1       -0.1117
     15 C         141.1226  140.9937  168.6602 C.ar    1  UNL1        0.2266
     16 C         142.3994  141.7772  168.7367 C.3     1  UNL1        0.0967
     17 O         140.4629  140.5033  167.4054 O.2     1  UNL1       -0.4233
     18 C         140.4593  143.8869  159.5608 C.ar    1  UNL1        0.0048
     19 C         140.3711  145.2081  158.8562 C.ar    1  UNL1        0.0091
     20 C         139.9975  145.2603  157.4044 C.ar    1  UNL1        0.0574
     21 CL        139.9093  146.5816  156.6997 Cl      1  UNL1       -0.0823
     22 C         139.7122  143.9913  156.6572 C.ar    1  UNL1        0.0114
     23 C         139.8005  142.6701  157.3618 C.ar    1  UNL1        0.0006
     24 C         140.1740  142.6179  158.8136 C.ar    1  UNL1       -0.0018
     25 C         140.8329  143.8346  161.0126 C.3     1  UNL1        0.1777
     26 C         138.4987  144.9425  165.6176 C.3     1  UNL1        0.0776
     27 C         138.7143  144.5676  164.1813 C.ar    1  UNL1        0.1838
     28 N         137.6420  144.2378  163.1856 N.ar    1  UNL1       -0.1123
     29 N         138.3051  143.9231  161.8774 N.ar    1  UNL1       -0.0451
     30 N         139.7872  144.0583  162.0646 N.ar    1  UNL1       -0.1467
     31 N         140.0401  144.4567  163.4884 N.ar    1  UNL1       -0.1339
@<TRIPOS>BOND
     1    26    27    1
     2    27    28   ar
     3    28    29   ar
     4    29    30   ar
     5    30    25    1
     6    25    18    1
     7    18    19   ar
     8    19    20   ar
     9    20    21    1
    10    20    22   ar
    11    22    23   ar
    12    23    24   ar
    13    24     1    1
    14     1     2    2
    15     2     3    1
    16     3     4    2
    17     3     5   am
    18     5     6    1
    19     6     7    1
    20     7     8    1
    21     8    11    1
    22    11    12    1
    23    12    13   ar
    24    13    14   ar
    25    14    15   ar
    26    15    16    1
    27    15    17   ar
    28     8     9    1
    29     9    10    1
    30    30    31   ar
    31    31    27   ar
    32    24    18   ar
    33    10     5    1
    34    17    12   ar
@<TRIPOS>MOLECULE
*****
 31 34 0 0 0
SMALL
GASTEIGER

@<TRIPOS>ATOM
      1 C         141.9487  140.1915  165.6963 C.2     1  UNL1        0.0044
      2 C         142.7438  138.9779  165.3158 C.2     1  UNL1        0.0579
      3 C         143.7038  139.0407  164.1650 C.2     1  UNL1        0.2492
      4 O         145.1591  139.3038  164.4158 O.2     1  UNL1       -0.2699
      5 N         143.2086  138.8404  162.7633 N.am    1  UNL1       -0.2761
      6 C         141.7533  138.5773  162.5124 C.3     1  UNL1        0.0937
      7 C         141.2581  138.3770  161.1108 C.3     1  UNL1        0.0221
      8 C         142.2181  138.4398  159.9600 C.3     1  UNL1        0.0127
      9 C         143.6735  138.7030  160.2108 C.3     1  UNL1        0.0221
     10 C         144.1687  138.9033  161.6125 C.3     1  UNL1        0.0937
     11 C         141.7229  138.2395  158.5583 C.3     1  UNL1        0.0871
     12 C         142.5602  137.4865  157.5675 C.ar    1  UNL1        0.2261
     13 N         143.5838  138.0808  156.6461 N.ar    1  UNL1       -0.1117
     14 N         144.1771  136.9686  155.8332 N.ar    1  UNL1       -0.1117
     15 C         143.5202  135.6868  156.2522 C.ar    1  UNL1        0.2266
     16 C         143.8115  134.3242  155.6969 C.3     1  UNL1        0.0967
     17 O         142.5209  136.0069  157.3241 O.2     1  UNL1       -0.4233
     18 C         139.5605  139.7349  166.6118 C.ar    1  UNL1        0.0048
     19 C         138.6005  139.6720  167.7626 C.ar    1  UNL1        0.0091
     20 C         139.0686  140.0028  169.1487 C.ar    1  UNL1        0.0574
     21 CL        138.1085  139.9400  170.2996 Cl      1  UNL1       -0.0823
     22 C         140.4967  140.3965  169.3841 C.ar    1  UNL1        0.0114
     23 C         141.4568  140.4594  168.2333 C.ar    1  UNL1        0.0006
     24 C         140.9886  140.1286  166.8472 C.ar    1  UNL1       -0.0018
     25 C         139.0924  139.4041  165.2256 C.3     1  UNL1        0.1777
     26 C         137.6100  144.1155  163.3584 C.3     1  UNL1        0.0776
     27 C         137.7930  142.6345  163.5104 C.ar    1  UNL1        0.1838
     28 N         137.2539  141.5804  162.5894 N.ar    1  UNL1       -0.1123
     29 N         137.6750  140.2420  163.1199 N.ar    1  UNL1       -0.0451
     30 N         138.4744  140.4689  164.3686 N.ar    1  UNL1       -0.1467
     31 N         138.5473  141.9476  164.6100 N.ar    1  UNL1       -0.1339
@<TRIPOS>BOND
     1    26    27    1
     2    27    28   ar
     3    28    29   ar
     4    29    30   ar
     5    30    25    1
     6    25    18    1
     7    18    19   ar
     8    19    20   ar
     9    20    21    1
    10    20    22   ar
    11    22    23   ar
    12    23    24   ar
    13    24     1    1
    14     1     2    2
    15     2     3    1
    16     3     4    2
    17     3     5   am
    18     5     6    1
    19     6     7    1
    20     7     8    1
    21     8    11    1
    22    11    12    1
    23    12    13   ar
    24    13    14   ar
    25    14    15   ar
    26    15    16    1
    27    15    17   ar
    28     8     9    1
    29     9    10    1
    30    30    31   ar
    31    31    27   ar
    32    24    18   ar
    33    10     5    1
    34    17    12   ar
@<TRIPOS>MOLECULE
*****
 31 34 0 0 0
SMALL
GASTEIGER

@<TRIPOS>ATOM
      1 C         138.7574  141.9812  161.6407 C.2     1  UNL1        0.0044
      2 C         139.3696  140.6242  161.8244 C.2     1  UNL1        0.0579
      3 C         138.7494  139.6443  162.7757 C.2     1  UNL1        0.2492
      4 O         137.9011  138.5238  162.2511 O.2     1  UNL1       -0.2699
      5 N         138.9775  139.7846  164.2516 N.am    1  UNL1       -0.2761
      6 C         139.8257  140.9050  164.7762 C.3     1  UNL1        0.0937
      7 C         140.0538  141.0454  166.2521 C.3     1  UNL1        0.0221
      8 C         139.4336  140.0654  167.2034 C.3     1  UNL1        0.0127
      9 C         138.5853  138.9450  166.6788 C.3     1  UNL1        0.0221
     10 C         138.3573  138.8046  165.2029 C.3     1  UNL1        0.0937
     11 C         139.6617  140.2058  168.6793 C.3     1  UNL1        0.0871
     12 C         141.0474  140.4356  169.2056 C.ar    1  UNL1        0.2261
     13 N         141.9114  139.4170  169.8883 N.ar    1  UNL1       -0.1117
     14 N         143.2104  140.0762  170.2462 N.ar    1  UNL1       -0.1117
     15 C         143.1492  141.5022  169.7847 C.ar    1  UNL1        0.2266
     16 C         144.2343  142.5262  169.9392 C.3     1  UNL1        0.0967
     17 O         141.8124  141.7242  169.1416 O.2     1  UNL1       -0.4233
     18 C         140.2151  144.0893  161.2148 C.ar    1  UNL1        0.0048
     19 C         140.8353  145.0693  160.2635 C.ar    1  UNL1        0.0091
     20 C         140.6181  144.9212  158.7868 C.ar    1  UNL1        0.0574
     21 CL        141.2383  145.9012  157.8354 Cl      1  UNL1       -0.0823
     22 C         139.7806  143.7931  158.2613 C.ar    1  UNL1        0.0114
     23 C         139.1604  142.8131  159.2126 C.ar    1  UNL1        0.0006
     24 C         139.3776  142.9612  160.6893 C.ar    1  UNL1       -0.0018
     25 C         140.4323  144.2374  162.6916 C.3     1  UNL1        0.1777
     26 C         145.1043  142.2930  164.1993 C.3     1  UNL1        0.0776
     27 C         143.9634  143.2354  163.9538 C.ar    1  UNL1        0.1838
     28 N         143.9268  144.6897  164.3193 N.ar    1  UNL1       -0.1123
     29 N         142.5996  145.2421  163.8910 N.ar    1  UNL1       -0.0451
     30 N         141.8159  144.1292  163.2607 N.ar    1  UNL1       -0.1467
     31 N         142.6588  142.8890  163.2995 N.ar    1  UNL1       -0.1339
@<TRIPOS>BOND
     1    26    27    1
     2    27    28   ar
     3    28    29   ar
     4    29    30   ar
     5    30    25    1
     6    25    18    1
     7    18    19   ar
     8    19    20   ar
     9    20    21    1
    10    20    22   ar
    11    22    23   ar
    12    23    24   ar
    13    24     1    1
    14     1     2    2
    15     2     3    1
    16     3     4    2
    17     3     5   am
    18     5     6    1
    19     6     7    1
    20     7     8    1
    21     8    11    1
    22    11    12    1
    23    12    13   ar
    24    13    14   ar
    25    14    15   ar
    26    15    16    1
    27    15    17   ar
    28     8     9    1
    29     9    10    1
    30    30    31   ar
    31    31    27   ar
    32    24    18   ar
    33    10     5    1
    34    17    12   ar
@<TRIPOS>MOLECULE
*****
 31 34 0 0 0
SMALL
GASTEIGER

@<TRIPOS>ATOM
      1 C         139.9904  139.8554  165.7929 C.2     1  UNL1        0.0044
      2 C         138.7594  139.8067  164.9372 C.2     1  UNL1        0.0579
      3 C         138.7671  139.0270  163.6559 C.2     1  UNL1        0.2492
      4 O         138.9040  137.5336  163.6875 O.2     1  UNL1       -0.2699
      5 N         138.6378  139.7407  162.3429 N.am    1  UNL1       -0.2761
      6 C         138.5009  141.2340  162.3112 C.3     1  UNL1        0.0937
      7 C         138.3717  141.9477  160.9982 C.3     1  UNL1        0.0221
      8 C         138.3794  141.1680  159.7168 C.3     1  UNL1        0.0127
      9 C         138.5163  139.6745  159.7484 C.3     1  UNL1        0.0221
     10 C         138.6455  138.9609  161.0614 C.3     1  UNL1        0.0937
     11 C         138.2501  141.8817  158.4038 C.3     1  UNL1        0.0871
     12 C         137.7370  141.1494  157.1995 C.ar    1  UNL1        0.2261
     13 N         136.3404  140.6366  157.0082 N.ar    1  UNL1       -0.1117
     14 N         136.2706  139.9716  155.6655 N.ar    1  UNL1       -0.1117
     15 C         137.6241  140.0734  155.0269 C.ar    1  UNL1        0.2266
     16 C         138.0045  139.5408  153.6772 C.3     1  UNL1        0.0967
     17 O         138.5303  140.8013  155.9750 O.2     1  UNL1       -0.4233
     18 C         140.5710  142.0144  167.1166 C.ar    1  UNL1        0.0048
     19 C         140.5633  142.7941  168.3979 C.ar    1  UNL1        0.0091
     20 C         139.9673  142.1947  169.6370 C.ar    1  UNL1        0.0574
     21 CL        139.9596  142.9745  170.9185 Cl      1  UNL1       -0.0823
     22 C         139.3791  140.8155  169.5948 C.ar    1  UNL1        0.0114
     23 C         139.3868  140.0357  168.3135 C.ar    1  UNL1        0.0006
     24 C         139.9827  140.6352  167.0744 C.ar    1  UNL1       -0.0018
     25 C         141.1669  142.6138  165.8773 C.3     1  UNL1        0.1777
     26 C         139.6800  145.9294  162.0464 C.3     1  UNL1        0.0776
     27 C         139.6401  144.9906  163.2155 C.ar    1  UNL1        0.1838
     28 N         138.4115  144.5669  163.9646 N.ar    1  UNL1       -0.1123
     29 N         138.8339  143.6250  165.0529 N.ar    1  UNL1       -0.0451
     30 N         140.3236  143.4665  164.9764 N.ar    1  UNL1       -0.1467
     31 N         140.8218  144.3105  163.8409 N.ar    1  UNL1       -0.1339
@<TRIPOS>BOND
     1    26    27    1
     2    27    28   ar
     3    28    29   ar
     4    29    30   ar
     5    30    25    1
     6    25    18    1
     7    18    19   ar
     8    19    20   ar
     9    20    21    1
    10    20    22   ar
    11    22    23   ar
    12    23    24   ar
    13    24     1    1
    14     1     2    2
    15     2     3    1
    16     3     4    2
    17     3     5   am
    18     5     6    1
    19     6     7    1
    20     7     8    1
    21     8    11    1
    22    11    12    1
    23    12    13   ar
    24    13    14   ar
    25    14    15   ar
    26    15    16    1
    27    15    17   ar
    28     8     9    1
    29     9    10    1
    30    30    31   ar
    31    31    27   ar
    32    24    18   ar
    33    10     5    1
    34    17    12   ar
@<TRIPOS>MOLECULE
*****
 31 34 0 0 0
SMALL
GASTEIGER

@<TRIPOS>ATOM
      1 C         138.2115  139.1362  161.3731 C.2     1  UNL1        0.0044
      2 C         139.3866  139.3968  160.4781 C.2     1  UNL1        0.0579
      3 C         139.2228  139.3362  158.9883 C.2     1  UNL1        0.2492
      4 O         138.0124  139.9419  158.3416 O.2     1  UNL1       -0.2699
      5 N         140.2692  138.6697  158.1452 N.am    1  UNL1       -0.2761
      6 C         141.4795  138.0640  158.7919 C.3     1  UNL1        0.0937
      7 C         142.5260  137.3975  157.9488 C.3     1  UNL1        0.0221
      8 C         142.3621  137.3368  156.4590 C.3     1  UNL1        0.0127
      9 C         141.1518  137.9426  155.8123 C.3     1  UNL1        0.0221
     10 C         140.1053  138.6090  156.6554 C.3     1  UNL1        0.0937
     11 C         143.4086  136.6704  155.6159 C.3     1  UNL1        0.0871
     12 C         143.5282  135.1752  155.6119 C.ar    1  UNL1        0.2261
     13 N         143.0596  134.2561  154.5230 N.ar    1  UNL1       -0.1117
     14 N         143.3792  132.8494  154.9342 N.ar    1  UNL1       -0.1117
     15 C         144.0453  132.8992  156.2773 C.ar    1  UNL1        0.2266
     16 C         144.5336  131.7187  157.0636 C.3     1  UNL1        0.0967
     17 O         144.1374  134.3366  156.6961 O.2     1  UNL1       -0.4233
     18 C         137.9423  140.4198  163.6159 C.ar    1  UNL1        0.0048
     19 C         138.1062  140.4806  165.1056 C.ar    1  UNL1        0.0091
     20 C         138.7031  139.3184  165.8424 C.ar    1  UNL1        0.0574
     21 CL        138.8670  139.3791  167.3323 Cl      1  UNL1       -0.0823
     22 C         139.1362  138.0955  165.0895 C.ar    1  UNL1        0.0114
     23 C         138.9723  138.0347  163.5997 C.ar    1  UNL1        0.0006
     24 C         138.3754  139.1969  162.8629 C.ar    1  UNL1       -0.0018
     25 C         137.3453  141.5821  162.8789 C.3     1  UNL1        0.1777
     26 C         140.8954  145.4903  162.8229 C.3     1  UNL1        0.0776
     27 C         139.8551  144.5017  162.3867 C.ar    1  UNL1        0.1838
     28 N         139.2937  144.3656  161.0024 N.ar    1  UNL1       -0.1123
     29 N         138.2852  143.2553  161.0183 N.ar    1  UNL1       -0.0451
     30 N         138.2233  142.7052  162.4124 N.ar    1  UNL1       -0.1467
     31 N         139.1936  143.4755  163.2581 N.ar    1  UNL1       -0.1339
@<TRIPOS>BOND
     1    26    27    1
     2    27    28   ar
     3    28    29   ar
     4    29    30   ar
     5    30    25    1
     6    25    18    1
     7    18    19   ar
     8    19    20   ar
     9    20    21    1
    10    20    22   ar
    11    22    23   ar
    12    23    24   ar
    13    24     1    1
    14     1     2    2
    15     2     3    1
    16     3     4    2
    17     3     5   am
    18     5     6    1
    19     6     7    1
    20     7     8    1
    21     8    11    1
    22    11    12    1
    23    12    13   ar
    24    13    14   ar
    25    14    15   ar
    26    15    16    1
    27    15    17   ar
    28     8     9    1
    29     9    10    1
    30    30    31   ar
    31    31    27   ar
    32    24    18   ar
    33    10     5    1
    34    17    12   ar
@<TRIPOS>MOLECULE
*****
 31 34 0 0 0
SMALL
GASTEIGER

@<TRIPOS>ATOM
      1 C         139.8918  142.0878  166.0334 C.2     1  UNL1        0.0044
      2 C         140.4737  143.4200  165.6635 C.2     1  UNL1        0.0579
      3 C         139.7602  144.3044  164.6845 C.2     1  UNL1        0.2492
      4 O         138.5466  145.0738  165.1150 O.2     1  UNL1       -0.2699
      5 N         140.2601  144.4194  163.2750 N.am    1  UNL1       -0.2761
      6 C         141.4737  143.6500  162.8445 C.3     1  UNL1        0.0937
      7 C         141.9736  143.7651  161.4349 C.3     1  UNL1        0.0221
      8 C         141.2601  144.6495  160.4559 C.3     1  UNL1        0.0127
      9 C         140.0464  145.4189  160.8863 C.3     1  UNL1        0.0221
     10 C         139.5465  145.3039  162.2959 C.3     1  UNL1        0.0937
     11 C         141.7600  144.7645  159.0463 C.3     1  UNL1        0.0871
     12 C         140.7980  145.0434  157.9297 C.ar    1  UNL1        0.2261
     13 N         139.9768  144.0234  157.1981 N.ar    1  UNL1       -0.1117
     14 N         139.1596  144.7408  156.1649 N.ar    1  UNL1       -0.1117
     15 C         139.4758  146.2042  156.2580 C.ar    1  UNL1        0.2266
     16 C         138.8834  147.2899  155.4093 C.3     1  UNL1        0.0967
     17 O         140.4884  146.3911  157.3487 O.2     1  UNL1       -0.4233
     18 C         141.6575  140.2482  166.5319 C.ar    1  UNL1        0.0048
     19 C         142.3711  139.3639  167.5109 C.ar    1  UNL1        0.0091
     20 C         142.0327  139.4346  168.9705 C.ar    1  UNL1        0.0574
     21 CL        142.7464  138.5502  169.9496 Cl      1  UNL1       -0.0823
     22 C         140.9807  140.3898  169.4511 C.ar    1  UNL1        0.0114
     23 C         140.2671  141.2742  168.4721 C.ar    1  UNL1        0.0006
     24 C         140.6055  141.2034  167.0125 C.ar    1  UNL1       -0.0018
     25 C         141.9959  140.1775  165.0722 C.3     1  UNL1        0.1777
     26 C         138.3756  137.9133  161.9661 C.3     1  UNL1        0.0776
     27 C         139.6267  138.1534  162.7580 C.ar    1  UNL1        0.1838
     28 N         140.7848  137.2085  162.8850 N.ar    1  UNL1       -0.1123
     29 N         141.8132  137.8518  163.7674 N.ar    1  UNL1       -0.0451
     30 N         141.2908  139.1942  164.1857 N.ar    1  UNL1       -0.1467
     31 N         139.9395  139.3806  163.5618 N.ar    1  UNL1       -0.1339
@<TRIPOS>BOND
     1    26    27    1
     2    27    28   ar
     3    28    29   ar
     4    29    30   ar
     5    30    25    1
     6    25    18    1
     7    18    19   ar
     8    19    20   ar
     9    20    21    1
    10    20    22   ar
    11    22    23   ar
    12    23    24   ar
    13    24     1    1
    14     1     2    2
    15     2     3    1
    16     3     4    2
    17     3     5   am
    18     5     6    1
    19     6     7    1
    20     7     8    1
    21     8    11    1
    22    11    12    1
    23    12    13   ar
    24    13    14   ar
    25    14    15   ar
    26    15    16    1
    27    15    17   ar
    28     8     9    1
    29     9    10    1
    30    30    31   ar
    31    31    27   ar
    32    24    18   ar
    33    10     5    1
    34    17    12   ar
@<TRIPOS>MOLECULE
*****
 31 34 0 0 0
SMALL
GASTEIGER

@<TRIPOS>ATOM
      1 C         138.1861  139.0740  161.0050 C.2     1  UNL1        0.0044
      2 C         139.4070  139.1662  160.1384 C.2     1  UNL1        0.0579
      3 C         139.2737  139.1030  158.6457 C.2     1  UNL1        0.2492
      4 O         139.5643  137.8226  157.9203 O.2     1  UNL1       -0.2699
      5 N         138.8498  140.3202  157.8784 N.am    1  UNL1       -0.2761
      6 C         138.5592  141.6006  158.6037 C.3     1  UNL1        0.0937
      7 C         138.1353  142.8177  157.8364 C.3     1  UNL1        0.0221
      8 C         138.0020  142.7545  156.3437 C.3     1  UNL1        0.0127
      9 C         138.2926  141.4741  155.6182 C.3     1  UNL1        0.0221
     10 C         138.7165  140.2570  156.3856 C.3     1  UNL1        0.0937
     11 C         137.5781  143.9717  155.5763 C.3     1  UNL1        0.0871
     12 C         138.5119  145.1382  155.4448 C.ar    1  UNL1        0.2261
     13 N         139.9945  145.1107  155.6707 N.ar    1  UNL1       -0.1117
     14 N         140.5259  146.4926  155.4298 N.ar    1  UNL1       -0.1117
     15 C         139.3715  147.3742  155.0550 C.ar    1  UNL1        0.2266
     16 C         139.4485  148.8362  154.7283 C.3     1  UNL1        0.0967
     17 O         138.1269  146.5371  155.0643 O.2     1  UNL1       -0.4233
     18 C         137.9007  140.3738  163.2365 C.ar    1  UNL1        0.0048
     19 C         138.0341  140.4370  164.7291 C.ar    1  UNL1        0.0091
     20 C         138.5862  139.2637  165.4832 C.ar    1  UNL1        0.0574
     21 CL        138.7195  139.3269  166.9759 Cl      1  UNL1       -0.0823
     22 C         139.0049  138.0272  164.7445 C.ar    1  UNL1        0.0114
     23 C         138.8716  137.9640  163.2518 C.ar    1  UNL1        0.0006
     24 C         138.3195  139.1372  162.4978 C.ar    1  UNL1       -0.0018
     25 C         137.3486  141.5471  162.4824 C.3     1  UNL1        0.1777
     26 C         141.4005  144.7660  161.4328 C.3     1  UNL1        0.0776
     27 C         140.0423  144.2626  161.8226 C.ar    1  UNL1        0.1838
     28 N         138.8757  145.1074  162.2415 N.ar    1  UNL1       -0.1123
     29 N         137.7247  144.1929  162.5396 N.ar    1  UNL1       -0.0451
     30 N         138.1799  142.7830  162.3050 N.ar    1  UNL1       -0.1467
     31 N         139.6123  142.8262  161.8618 N.ar    1  UNL1       -0.1339
@<TRIPOS>BOND
     1    26    27    1
     2    27    28   ar
     3    28    29   ar
     4    29    30   ar
     5    30    25    1
     6    25    18    1
     7    18    19   ar
     8    19    20   ar
     9    20    21    1
    10    20    22   ar
    11    22    23   ar
    12    23    24   ar
    13    24     1    1
    14     1     2    2
    15     2     3    1
    16     3     4    2
    17     3     5   am
    18     5     6    1
    19     6     7    1
    20     7     8    1
    21     8    11    1
    22    11    12    1
    23    12    13   ar
    24    13    14   ar
    25    14    15   ar
    26    15    16    1
    27    15    17   ar
    28     8     9    1
    29     9    10    1
    30    30    31   ar
    31    31    27   ar
    32    24    18   ar
    33    10     5    1
    34    17    12   ar
@<TRIPOS>MOLECULE
*****
 31 34 0 0 0
SMALL
GASTEIGER

@<TRIPOS>ATOM
      1 C         141.3480  139.2845  166.3369 C.2     1  UNL1        0.0044
      2 C         139.8660  139.3956  166.1335 C.2     1  UNL1        0.0579
      3 C         139.1747  138.4989  165.1496 C.2     1  UNL1        0.2492
      4 O         138.5200  137.2337  165.6193 O.2     1  UNL1       -0.2699
      5 N         139.1381  138.8675  163.6960 N.am    1  UNL1       -0.2761
      6 C         139.7927  140.1327  163.2263 C.3     1  UNL1        0.0937
      7 C         139.7560  140.5012  161.7728 C.3     1  UNL1        0.0221
      8 C         139.0647  139.6045  160.7889 C.3     1  UNL1        0.0127
      9 C         138.4101  138.3392  161.2586 C.3     1  UNL1        0.0221
     10 C         138.4467  137.9707  162.7122 C.3     1  UNL1        0.0937
     11 C         139.0281  139.9730  159.3353 C.3     1  UNL1        0.0871
     12 C         139.6666  139.0750  158.3176 C.ar    1  UNL1        0.2261
     13 N         139.0760  138.6793  156.9967 N.ar    1  UNL1       -0.1117
     14 N         140.0522  137.7748  156.3048 N.ar    1  UNL1       -0.1117
     15 C         141.2462  137.6114  157.1981 C.ar    1  UNL1        0.2266
     16 C         142.4646  136.7888  156.8998 C.3     1  UNL1        0.0967
     17 O         141.0078  138.4150  158.4420 O.2     1  UNL1       -0.4233
     18 C         142.6000  141.4977  166.8705 C.ar    1  UNL1        0.0048
     19 C         143.2912  142.3944  167.8543 C.ar    1  UNL1        0.0091
     20 C         143.4218  141.9748  169.2885 C.ar    1  UNL1        0.0574
     21 CL        144.1131  142.8715  170.2724 Cl      1  UNL1       -0.0823
     22 C         142.8611  140.6584  169.7388 C.ar    1  UNL1        0.0114
     23 C         142.1698  139.7616  168.7550 C.ar    1  UNL1        0.0006
     24 C         142.0393  140.1813  167.3208 C.ar    1  UNL1       -0.0018
     25 C         142.4694  141.9173  165.4363 C.3     1  UNL1        0.1777
     26 C         139.5785  145.3627  162.6699 C.3     1  UNL1        0.0776
     27 C         140.0404  144.4339  163.7535 C.ar    1  UNL1        0.1838
     28 N         139.3118  144.1378  165.0308 N.ar    1  UNL1       -0.1123
     29 N         140.1331  143.1591  165.8166 N.ar    1  UNL1       -0.0451
     30 N         141.3692  142.8502  165.0250 N.ar    1  UNL1       -0.1467
     31 N         141.3119  143.6381  163.7499 N.ar    1  UNL1       -0.1339
@<TRIPOS>BOND
     1    26    27    1
     2    27    28   ar
     3    28    29   ar
     4    29    30   ar
     5    30    25    1
     6    25    18    1
     7    18    19   ar
     8    19    20   ar
     9    20    21    1
    10    20    22   ar
    11    22    23   ar
    12    23    24   ar
    13    24     1    1
    14     1     2    2
    15     2     3    1
    16     3     4    2
    17     3     5   am
    18     5     6    1
    19     6     7    1
    20     7     8    1
    21     8    11    1
    22    11    12    1
    23    12    13   ar
    24    13    14   ar
    25    14    15   ar
    26    15    16    1
    27    15    17   ar
    28     8     9    1
    29     9    10    1
    30    30    31   ar
    31    31    27   ar
    32    24    18   ar
    33    10     5    1
    34    17    12   ar
@<TRIPOS>MOLECULE
*****
 31 34 0 0 0
SMALL
GASTEIGER

@<TRIPOS>ATOM
      1 C         141.5619  139.2545  166.2630 C.2     1  UNL1        0.0044
      2 C         140.0946  139.3589  165.9697 C.2     1  UNL1        0.0579
      3 C         139.4690  138.4607  164.9441 C.2     1  UNL1        0.2492
      4 O         138.6316  137.2947  165.3792 O.2     1  UNL1       -0.2699
      5 N         139.6807  138.7285  163.4835 N.am    1  UNL1       -0.2761
      6 C         140.5181  139.8944  163.0484 C.3     1  UNL1        0.0937
      7 C         140.7298  140.1621  161.5877 C.3     1  UNL1        0.0221
      8 C         140.1042  139.2639  160.5622 C.3     1  UNL1        0.0127
      9 C         139.2668  138.0979  160.9973 C.3     1  UNL1        0.0221
     10 C         139.0551  137.8302  162.4579 C.3     1  UNL1        0.0937
     11 C         140.3160  139.5316  159.1016 C.3     1  UNL1        0.0871
     12 C         139.1886  140.0594  158.2647 C.ar    1  UNL1        0.2261
     13 N         137.7362  140.0572  158.6395 N.ar    1  UNL1       -0.1117
     14 N         136.9656  140.6784  157.5125 N.ar    1  UNL1       -0.1117
     15 C         137.9418  141.0646  156.4410 C.ar    1  UNL1        0.2266
     16 C         137.6035  141.7186  155.1341 C.3     1  UNL1        0.0967
     17 O         139.3157  140.6820  156.9059 O.2     1  UNL1       -0.4233
     18 C         142.7261  141.4928  166.8833 C.ar    1  UNL1        0.0048
     19 C         143.3517  142.3910  167.9089 C.ar    1  UNL1        0.0091
     20 C         143.4387  141.9493  169.3397 C.ar    1  UNL1        0.0574
     21 CL        144.0643  142.8476  170.3653 Cl      1  UNL1       -0.0823
     22 C         142.9001  140.6093  169.7450 C.ar    1  UNL1        0.0114
     23 C         142.2745  139.7110  168.7194 C.ar    1  UNL1        0.0006
     24 C         142.1875  140.1528  167.2886 C.ar    1  UNL1       -0.0018
     25 C         142.6392  141.9345  165.4525 C.3     1  UNL1        0.1777
     26 C         138.2303  144.8388  165.3639 C.3     1  UNL1        0.0776
     27 C         139.5608  144.2537  164.9933 C.ar    1  UNL1        0.1838
     28 N         140.3766  144.6126  163.7868 N.ar    1  UNL1       -0.1123
     29 N         141.6291  143.7875  163.8120 N.ar    1  UNL1       -0.0451
     30 N         141.5873  142.9187  165.0340 N.ar    1  UNL1       -0.1467
     31 N         140.3090  143.2067  165.7640 N.ar    1  UNL1       -0.1339
@<TRIPOS>BOND
     1    26    27    1
     2    27    28   ar
     3    28    29   ar
     4    29    30   ar
     5    30    25    1
     6    25    18    1
     7    18    19   ar
     8    19    20   ar
     9    20    21    1
    10    20    22   ar
    11    22    23   ar
    12    23    24   ar
    13    24     1    1
    14     1     2    2
    15     2     3    1
    16     3     4    2
    17     3     5   am
    18     5     6    1
    19     6     7    1
    20     7     8    1
    21     8    11    1
    22    11    12    1
    23    12    13   ar
    24    13    14   ar
    25    14    15   ar
    26    15    16    1
    27    15    17   ar
    28     8     9    1
    29     9    10    1
    30    30    31   ar
    31    31    27   ar
    32    24    18   ar
    33    10     5    1
    34    17    12   ar
