@<TRIPOS>MOLECULE
*****
 35 38 0 0 0
SMALL
GASTEIGER

@<TRIPOS>ATOM
      1 C         140.3967  139.0320  161.6216 C.ar    1  UNL1        0.1275
      2 C         139.2160  138.5822  160.8131 C.ar    1  UNL1        0.1294
      3 N         139.6640  138.4167  159.3911 N.ar    1  UNL1       -0.1665
      4 N         141.1215  138.7642  159.3208 N.ar    1  UNL1       -0.2358
      5 C         141.5743  139.1445  160.6994 C.ar    1  UNL1        0.1055
      6 N         141.0783  140.5860  167.8444 N.am    1  UNL1       -0.2076
      7 C         141.7473  140.6660  166.5042 C.2     1  UNL1        0.3011
      8 O         143.0895  141.3229  166.3740 O.2     1  UNL1       -0.2655
      9 C         141.0741  140.0890  165.2943 C.2     1  UNL1        0.2931
     10 N         141.4865  140.0191  163.8538 N.2     1  UNL1       -0.0280
     11 C         140.3992  139.3190  163.0939 C.2     1  UNL1        0.3755
     12 N         139.3148  138.9562  164.0647 N.2     1  UNL1       -0.0331
     13 C         139.7319  139.4321  165.4247 C.3     1  UNL1        0.3665
     14 N         139.0630  139.3521  166.7649 N.am    1  UNL1       -0.2170
     15 C         139.7362  139.9291  167.9747 C.2     1  UNL1        0.3165
     16 O         139.0672  139.8491  169.3149 O.2     1  UNL1       -0.2518
     17 C         137.7208  138.6952  166.8952 C.3     1  UNL1        0.0994
     18 C         137.5970  137.2071  166.7522 C.3     1  UNL1        0.0235
     19 C         141.7516  141.1630  169.0544 C.3     1  UNL1        0.1029
     20 C         140.3846  143.3723  169.0700 C.3     1  UNL1        0.0018
     21 C         141.6644  142.6347  169.3309 C.3     1  UNL1        0.0220
     22 C         141.9761  138.7362  158.0885 C.3     1  UNL1        0.2028
     23 C         142.2280  137.4385  157.3796 C.1     1  UNL1       -0.0594
     24 C         142.4798  136.1408  156.6708 C.1     1  UNL1       -0.0623
     25 C         142.7317  134.8431  155.9618 C.ar    1  UNL1        0.0447
     26 C         141.9532  134.4998  154.7265 C.ar    1  UNL1        0.0084
     27 C         142.2052  133.2021  154.0176 C.ar    1  UNL1        0.0037
     28 C         143.2357  132.2477  154.5441 C.ar    1  UNL1        0.0372
     29 C         144.0142  132.5910  155.7795 C.ar    1  UNL1        0.1474
     30 C         143.7622  133.8887  156.4883 C.ar    1  UNL1        0.0454
     31 O         145.0447  131.6366  156.3060 O.3     1  UNL1       -0.4044
     32 C         144.7687  130.8465  157.5509 C.3     1  UNL1        0.5753
     33 F         144.4927  130.0565  158.7957 F       1  UNL1       -0.1328
     34 F         143.9591  129.8692  156.7511 F       1  UNL1       -0.1328
     35 F         145.5783  131.8238  158.3506 F       1  UNL1       -0.1328
@<TRIPOS>BOND
     1    20    21    1
     2    21    19    1
     3    19     6    1
     4     6     7   am
     5     7     8    2
     6     7     9    1
     7     9    10    2
     8    10    11    1
     9    11     1    1
    10     1     2   ar
    11     2     3   ar
    12     3     4   ar
    13     4    22    1
    14    22    23    1
    15    23    24    3
    16    24    25    1
    17    25    26   ar
    18    26    27   ar
    19    27    28   ar
    20    28    29   ar
    21    29    31    1
    22    31    32    1
    23    32    33    1
    24    32    34    1
    25    32    35    1
    26    29    30   ar
    27     4     5   ar
    28    11    12    2
    29    12    13    1
    30    13    14    1
    31    14    17    1
    32    17    18    1
    33    14    15   am
    34    15    16    2
    35    15     6   am
    36    13     9    1
    37     5     1   ar
    38    30    25   ar
@<TRIPOS>MOLECULE
*****
 35 38 0 0 0
SMALL
GASTEIGER

@<TRIPOS>ATOM
      1 C         143.1187  135.1483  156.3118 C.ar    1  UNL1        0.1275
      2 C         144.1105  135.9163  155.4892 C.ar    1  UNL1        0.1294
      3 N         144.0945  137.3418  155.9557 N.ar    1  UNL1       -0.1665
      4 N         143.0929  137.4549  157.0666 N.ar    1  UNL1       -0.2358
      5 C         142.4899  136.0991  157.2867 C.ar    1  UNL1        0.1055
      6 N         141.2337  129.0643  155.2945 N.am    1  UNL1       -0.2076
      7 C         140.9339  130.4914  154.9429 C.2     1  UNL1        0.3011
      8 O         139.7998  130.8129  154.0152 O.2     1  UNL1       -0.2655
      9 C         141.7682  131.5969  155.5189 C.2     1  UNL1        0.2931
     10 N         141.7112  133.0869  155.3555 N.2     1  UNL1       -0.0280
     11 C         142.8101  133.6861  156.1822 C.2     1  UNL1        0.3755
     12 N         143.5462  132.5665  156.8565 N.2     1  UNL1       -0.0331
     13 C         142.9022  131.2753  156.4466 C.3     1  UNL1        0.3665
     14 N         143.2019  129.8482  156.7982 N.am    1  UNL1       -0.2170
     15 C         142.3676  128.7428  156.2221 C.2     1  UNL1        0.3165
     16 O         142.6674  127.3156  156.5738 O.2     1  UNL1       -0.2518
     17 C         144.3360  129.5266  157.7259 C.3     1  UNL1        0.0994
     18 C         144.0530  129.0097  159.1053 C.3     1  UNL1        0.0235
     19 C         140.3993  127.9588  154.7184 C.3     1  UNL1        0.1029
     20 C         139.1119  126.7935  156.6510 C.3     1  UNL1        0.0018
     21 C         139.1043  127.5777  155.3724 C.3     1  UNL1        0.0220
     22 C         142.7540  138.7041  157.8244 C.3     1  UNL1        0.2028
     23 C         142.4130  138.6273  159.2831 C.1     1  UNL1       -0.0594
     24 C         142.0721  138.5505  160.7418 C.1     1  UNL1       -0.0623
     25 C         141.7310  138.4737  162.2005 C.ar    1  UNL1        0.0447
     26 C         142.8253  138.4396  163.2259 C.ar    1  UNL1        0.0084
     27 C         142.4841  138.3629  164.6846 C.ar    1  UNL1        0.0037
     28 C         141.0486  138.3202  165.1178 C.ar    1  UNL1        0.0372
     29 C         139.9544  138.3543  164.0925 C.ar    1  UNL1        0.1474
     30 C         140.2956  138.4310  162.6338 C.ar    1  UNL1        0.0454
     31 O         138.5190  138.3116  164.5257 O.3     1  UNL1       -0.4044
     32 C         138.1636  138.5302  165.9666 C.3     1  UNL1        0.5753
     33 F         137.8083  138.7488  167.4074 F       1  UNL1       -0.1328
     34 F         138.1235  137.0462  166.1818 F       1  UNL1       -0.1328
     35 F         138.2038  140.0142  165.7513 F       1  UNL1       -0.1328
@<TRIPOS>BOND
     1    20    21    1
     2    21    19    1
     3    19     6    1
     4     6     7   am
     5     7     8    2
     6     7     9    1
     7     9    10    2
     8    10    11    1
     9    11     1    1
    10     1     2   ar
    11     2     3   ar
    12     3     4   ar
    13     4    22    1
    14    22    23    1
    15    23    24    3
    16    24    25    1
    17    25    26   ar
    18    26    27   ar
    19    27    28   ar
    20    28    29   ar
    21    29    31    1
    22    31    32    1
    23    32    33    1
    24    32    34    1
    25    32    35    1
    26    29    30   ar
    27     4     5   ar
    28    11    12    2
    29    12    13    1
    30    13    14    1
    31    14    17    1
    32    17    18    1
    33    14    15   am
    34    15    16    2
    35    15     6   am
    36    13     9    1
    37     5     1   ar
    38    30    25   ar
@<TRIPOS>MOLECULE
*****
 35 38 0 0 0
SMALL
GASTEIGER

@<TRIPOS>ATOM
      1 C         142.7244  139.4004  161.6368 C.ar    1  UNL1        0.1275
      2 C         144.0923  139.4441  161.0229 C.ar    1  UNL1        0.1294
      3 N         143.9489  139.1859  159.5523 N.ar    1  UNL1       -0.1665
      4 N         142.4924  138.9825  159.2572 N.ar    1  UNL1       -0.2358
      5 C         141.7355  139.1151  160.5456 C.ar    1  UNL1        0.1055
      6 N         141.8876  139.7935  168.0202 N.am    1  UNL1       -0.2076
      7 C         142.7075  139.1311  166.9529 C.2     1  UNL1        0.3011
      8 O         143.7887  138.1623  167.3306 O.2     1  UNL1       -0.2655
      9 C         142.4462  139.4376  165.5080 C.2     1  UNL1        0.2931
     10 N         143.0870  138.9428  164.2452 N.2     1  UNL1       -0.0280
     11 C         142.4019  139.6058  163.0872 C.2     1  UNL1        0.3755
     12 N         141.3377  140.5104  163.6343 N.2     1  UNL1       -0.0331
     13 C         141.3651  140.4064  165.1304 C.3     1  UNL1        0.3665
     14 N         140.5453  141.0687  166.1977 N.am    1  UNL1       -0.2170
     15 C         140.8066  140.7623  167.6426 C.2     1  UNL1        0.3165
     16 O         139.9867  141.4247  168.7100 O.2     1  UNL1       -0.2518
     17 C         139.4641  142.0376  165.8201 C.3     1  UNL1        0.0994
     18 C         139.7669  143.5043  165.7372 C.3     1  UNL1        0.0235
     19 C         142.1489  139.4870  169.4652 C.3     1  UNL1        0.1029
     20 C         143.4490  141.7195  169.7405 C.3     1  UNL1        0.0018
     21 C         143.0591  140.3700  170.2665 C.3     1  UNL1        0.0220
     22 C         141.8971  138.6968  157.9104 C.3     1  UNL1        0.2028
     23 C         142.1660  137.3850  157.2346 C.1     1  UNL1       -0.0594
     24 C         142.4348  136.0731  156.5588 C.1     1  UNL1       -0.0623
     25 C         142.7037  134.7611  155.8830 C.ar    1  UNL1        0.0447
     26 C         141.8622  134.3311  154.7181 C.ar    1  UNL1        0.0084
     27 C         142.1312  133.0192  154.0425 C.ar    1  UNL1        0.0037
     28 C         143.2415  132.1373  154.5318 C.ar    1  UNL1        0.0372
     29 C         144.0829  132.5673  155.6967 C.ar    1  UNL1        0.1474
     30 C         143.8140  133.8792  156.3723 C.ar    1  UNL1        0.0454
     31 O         145.1932  131.6854  156.1860 O.3     1  UNL1       -0.4044
     32 C         145.0269  130.9050  157.4563 C.3     1  UNL1        0.5753
     33 F         144.8605  130.1247  158.7265 F       1  UNL1       -0.1328
     34 F         144.3196  129.8213  156.6978 F       1  UNL1       -0.1328
     35 F         145.7342  131.9889  158.2147 F       1  UNL1       -0.1328
@<TRIPOS>BOND
     1    20    21    1
     2    21    19    1
     3    19     6    1
     4     6     7   am
     5     7     8    2
     6     7     9    1
     7     9    10    2
     8    10    11    1
     9    11     1    1
    10     1     2   ar
    11     2     3   ar
    12     3     4   ar
    13     4    22    1
    14    22    23    1
    15    23    24    3
    16    24    25    1
    17    25    26   ar
    18    26    27   ar
    19    27    28   ar
    20    28    29   ar
    21    29    31    1
    22    31    32    1
    23    32    33    1
    24    32    34    1
    25    32    35    1
    26    29    30   ar
    27     4     5   ar
    28    11    12    2
    29    12    13    1
    30    13    14    1
    31    14    17    1
    32    17    18    1
    33    14    15   am
    34    15    16    2
    35    15     6   am
    36    13     9    1
    37     5     1   ar
    38    30    25   ar
@<TRIPOS>MOLECULE
*****
 35 38 0 0 0
SMALL
GASTEIGER

@<TRIPOS>ATOM
      1 C         144.9936  142.0705  158.1343 C.ar    1  UNL1        0.1275
      2 C         146.2263  142.7282  157.5885 C.ar    1  UNL1        0.1294
      3 N         146.6424  141.9820  156.3556 N.ar    1  UNL1       -0.1665
      4 N         145.6670  140.8631  156.1394 N.ar    1  UNL1       -0.2358
      5 C         144.6479  140.9179  157.2388 C.ar    1  UNL1        0.1055
      6 N         141.3625  144.3420  162.9570 N.am    1  UNL1       -0.2076
      7 C         141.6072  144.4507  161.4811 C.2     1  UNL1        0.3011
      8 O         140.7896  145.3973  160.6530 O.2     1  UNL1       -0.2655
      9 C         142.6693  143.6127  160.8332 C.2     1  UNL1        0.2931
     10 N         143.1342  143.5048  159.4112 N.2     1  UNL1       -0.0280
     11 C         144.2391  142.4916  159.3605 C.2     1  UNL1        0.3755
     12 N         144.4570  141.9733  160.7511 N.2     1  UNL1       -0.0331
     13 C         143.4868  142.6662  161.6614 C.3     1  UNL1        0.3665
     14 N         143.2421  142.5576  163.1373 N.am    1  UNL1       -0.2170
     15 C         142.1800  143.3955  163.7851 C.2     1  UNL1        0.3165
     16 O         141.9354  143.2868  165.2611 O.2     1  UNL1       -0.2518
     17 C         144.0596  141.6110  163.9654 C.3     1  UNL1        0.0994
     18 C         145.5517  141.7560  164.0166 C.3     1  UNL1        0.0235
     19 C         140.3003  145.1800  163.6049 C.3     1  UNL1        0.1029
     20 C         138.2004  144.2918  164.8505 C.3     1  UNL1        0.0018
     21 C         138.8702  144.7280  163.5812 C.3     1  UNL1        0.0220
     22 C         145.7040  139.8649  155.0205 C.3     1  UNL1        0.2028
     23 C         144.8998  138.6023  155.1149 C.1     1  UNL1       -0.0594
     24 C         144.0955  137.3397  155.2092 C.1     1  UNL1       -0.0623
     25 C         143.2912  136.0770  155.3035 C.ar    1  UNL1        0.0447
     26 C         141.9026  136.0283  154.7384 C.ar    1  UNL1        0.0084
     27 C         141.0984  134.7656  154.8327 C.ar    1  UNL1        0.0037
     28 C         141.6828  133.5516  155.4921 C.ar    1  UNL1        0.0372
     29 C         143.0714  133.6004  156.0572 C.ar    1  UNL1        0.1474
     30 C         143.8756  134.8631  155.9629 C.ar    1  UNL1        0.0454
     31 O         143.6559  132.3864  156.7166 O.3     1  UNL1       -0.4044
     32 C         144.9169  132.5035  157.5206 C.3     1  UNL1        0.5753
     33 F         146.1778  132.6206  158.3246 F       1  UNL1       -0.1328
     34 F         145.6382  131.6594  156.5121 F       1  UNL1       -0.1328
     35 F         144.1954  133.3476  158.5291 F       1  UNL1       -0.1328
@<TRIPOS>BOND
     1    20    21    1
     2    21    19    1
     3    19     6    1
     4     6     7   am
     5     7     8    2
     6     7     9    1
     7     9    10    2
     8    10    11    1
     9    11     1    1
    10     1     2   ar
    11     2     3   ar
    12     3     4   ar
    13     4    22    1
    14    22    23    1
    15    23    24    3
    16    24    25    1
    17    25    26   ar
    18    26    27   ar
    19    27    28   ar
    20    28    29   ar
    21    29    31    1
    22    31    32    1
    23    32    33    1
    24    32    34    1
    25    32    35    1
    26    29    30   ar
    27     4     5   ar
    28    11    12    2
    29    12    13    1
    30    13    14    1
    31    14    17    1
    32    17    18    1
    33    14    15   am
    34    15    16    2
    35    15     6   am
    36    13     9    1
    37     5     1   ar
    38    30    25   ar
@<TRIPOS>MOLECULE
*****
 35 38 0 0 0
SMALL
GASTEIGER

@<TRIPOS>ATOM
      1 C         143.2065  135.3356  156.4044 C.ar    1  UNL1        0.1275
      2 C         144.2447  136.1222  155.6605 C.ar    1  UNL1        0.1294
      3 N         143.9981  137.5786  155.9217 N.ar    1  UNL1       -0.1665
      4 N         142.8075  137.6921  156.8271 N.ar    1  UNL1       -0.2358
      5 C         142.3183  136.3058  157.1254 C.ar    1  UNL1        0.1055
      6 N         143.1479  128.9190  157.0578 N.am    1  UNL1       -0.2076
      7 C         143.7445  130.1792  157.6111 C.2     1  UNL1        0.3011
      8 O         144.7167  130.1111  158.7513 O.2     1  UNL1       -0.2655
      9 C         143.3688  131.5075  157.0240 C.2     1  UNL1        0.2931
     10 N         143.7906  132.9077  157.3579 N.2     1  UNL1       -0.0280
     11 C         143.0790  133.8412  156.4239 C.2     1  UNL1        0.3755
     12 N         142.2175  133.0179  155.5129 N.2     1  UNL1       -0.0331
     13 C         142.3966  131.5755  155.8838 C.3     1  UNL1        0.3665
     14 N         141.8000  130.3154  155.3306 N.am    1  UNL1       -0.2170
     15 C         142.1757  128.9871  155.9176 C.2     1  UNL1        0.3165
     16 O         141.5791  127.7269  155.3643 O.2     1  UNL1       -0.2518
     17 C         140.8278  130.3834  154.1903 C.3     1  UNL1        0.0994
     18 C         139.3682  130.5988  154.4610 C.3     1  UNL1        0.0235
     19 C         143.5235  127.5907  157.6448 C.3     1  UNL1        0.1029
     20 C         142.3600  127.5405  159.9672 C.3     1  UNL1        0.0018
     21 C         142.6088  126.9183  158.6252 C.3     1  UNL1        0.0220
     22 C         142.2109  138.9677  157.3434 C.3     1  UNL1        0.2028
     23 C         142.7729  139.6140  158.5749 C.1     1  UNL1       -0.0594
     24 C         143.3349  140.2602  159.8063 C.1     1  UNL1       -0.0623
     25 C         143.8969  140.9064  161.0379 C.ar    1  UNL1        0.0447
     26 C         144.5204  140.0624  162.1098 C.ar    1  UNL1        0.0084
     27 C         145.0824  140.7087  163.3413 C.ar    1  UNL1        0.0037
     28 C         145.0209  142.1989  163.5009 C.ar    1  UNL1        0.0372
     29 C         144.3974  143.0429  162.4290 C.ar    1  UNL1        0.1474
     30 C         143.8354  142.3966  161.1975 C.ar    1  UNL1        0.0454
     31 O         144.3359  144.5331  162.5885 O.3     1  UNL1       -0.4044
     32 C         143.2201  145.1581  163.3725 C.3     1  UNL1        0.5753
     33 F         142.1044  145.7830  164.1564 F       1  UNL1       -0.1328
     34 F         142.3166  145.0394  162.1810 F       1  UNL1       -0.1328
     35 F         144.1237  145.2767  164.5639 F       1  UNL1       -0.1328
@<TRIPOS>BOND
     1    20    21    1
     2    21    19    1
     3    19     6    1
     4     6     7   am
     5     7     8    2
     6     7     9    1
     7     9    10    2
     8    10    11    1
     9    11     1    1
    10     1     2   ar
    11     2     3   ar
    12     3     4   ar
    13     4    22    1
    14    22    23    1
    15    23    24    3
    16    24    25    1
    17    25    26   ar
    18    26    27   ar
    19    27    28   ar
    20    28    29   ar
    21    29    31    1
    22    31    32    1
    23    32    33    1
    24    32    34    1
    25    32    35    1
    26    29    30   ar
    27     4     5   ar
    28    11    12    2
    29    12    13    1
    30    13    14    1
    31    14    17    1
    32    17    18    1
    33    14    15   am
    34    15    16    2
    35    15     6   am
    36    13     9    1
    37     5     1   ar
    38    30    25   ar
@<TRIPOS>MOLECULE
*****
 35 38 0 0 0
SMALL
GASTEIGER

@<TRIPOS>ATOM
      1 C         140.7927  139.4542  161.5578 C.ar    1  UNL1        0.1275
      2 C         139.5538  138.7193  161.1394 C.ar    1  UNL1        0.1294
      3 N         139.6548  138.4401  159.6691 N.ar    1  UNL1       -0.1665
      4 N         140.9561  139.0025  159.1787 N.ar    1  UNL1       -0.2358
      5 C         141.6594  139.6292  160.3461 C.ar    1  UNL1        0.1055
      6 N         141.5431  141.1257  167.7421 N.am    1  UNL1       -0.2076
      7 C         140.6667  140.3507  166.8032 C.2     1  UNL1        0.3011
      8 O         139.4626  139.6258  167.3272 O.2     1  UNL1       -0.2655
      9 C         140.9946  140.3008  165.3403 C.2     1  UNL1        0.2931
     10 N         140.3213  139.6238  164.1834 N.2     1  UNL1       -0.0280
     11 C         141.1094  139.9304  162.9445 C.2     1  UNL1        0.3755
     12 N         142.2696  140.7969  163.3357 N.2     1  UNL1       -0.0331
     13 C         142.1987  141.0258  164.8164 C.3     1  UNL1        0.3665
     14 N         143.0750  141.8007  165.7553 N.am    1  UNL1       -0.2170
     15 C         142.7471  141.8507  167.2182 C.2     1  UNL1        0.3165
     16 O         143.6234  142.6257  168.1571 O.2     1  UNL1       -0.2518
     17 C         144.2791  142.5257  165.2314 C.3     1  UNL1        0.0994
     18 C         144.1538  143.9436  164.7583 C.3     1  UNL1        0.0235
     19 C         141.2152  141.1757  169.2051 C.3     1  UNL1        0.1029
     20 C         140.3612  143.6190  169.4304 C.3     1  UNL1        0.0018
     21 C         140.1986  142.1549  169.7129 C.3     1  UNL1        0.0220
     22 C         141.4648  138.9477  157.7687 C.3     1  UNL1        0.2028
     23 C         141.7899  137.6255  157.1395 C.1     1  UNL1       -0.0594
     24 C         142.1150  136.3032  156.5102 C.1     1  UNL1       -0.0623
     25 C         142.4401  134.9810  155.8808 C.ar    1  UNL1        0.0447
     26 C         141.5804  134.4452  154.7746 C.ar    1  UNL1        0.0084
     27 C         141.9056  133.1230  154.1453 C.ar    1  UNL1        0.0037
     28 C         143.0905  132.3366  154.6223 C.ar    1  UNL1        0.0372
     29 C         143.9503  132.8724  155.7285 C.ar    1  UNL1        0.1474
     30 C         143.6251  134.1946  156.3578 C.ar    1  UNL1        0.0454
     31 O         145.1352  132.0860  156.2054 O.3     1  UNL1       -0.4044
     32 C         144.9518  130.6857  156.7111 C.3     1  UNL1        0.5753
     33 F         144.7684  129.2855  157.2167 F       1  UNL1       -0.1328
     34 F         144.5672  131.2225  158.0580 F       1  UNL1       -0.1328
     35 F         145.3364  130.1490  155.3642 F       1  UNL1       -0.1328
@<TRIPOS>BOND
     1    20    21    1
     2    21    19    1
     3    19     6    1
     4     6     7   am
     5     7     8    2
     6     7     9    1
     7     9    10    2
     8    10    11    1
     9    11     1    1
    10     1     2   ar
    11     2     3   ar
    12     3     4   ar
    13     4    22    1
    14    22    23    1
    15    23    24    3
    16    24    25    1
    17    25    26   ar
    18    26    27   ar
    19    27    28   ar
    20    28    29   ar
    21    29    31    1
    22    31    32    1
    23    32    33    1
    24    32    34    1
    25    32    35    1
    26    29    30   ar
    27     4     5   ar
    28    11    12    2
    29    12    13    1
    30    13    14    1
    31    14    17    1
    32    17    18    1
    33    14    15   am
    34    15    16    2
    35    15     6   am
    36    13     9    1
    37     5     1   ar
    38    30    25   ar
@<TRIPOS>MOLECULE
*****
 35 38 0 0 0
SMALL
GASTEIGER

@<TRIPOS>ATOM
      1 C         140.5539  138.8839  161.0599 C.ar    1  UNL1        0.1275
      2 C         139.3113  138.7526  160.2301 C.ar    1  UNL1        0.1294
      3 N         139.7252  138.4516  158.8201 N.ar    1  UNL1       -0.1665
      4 N         141.2236  138.3968  158.7785 N.ar    1  UNL1       -0.2358
      5 C         141.7358  138.6640  160.1628 C.ar    1  UNL1        0.1055
      6 N         141.4659  140.4384  167.2531 N.am    1  UNL1       -0.2076
      7 C         142.1128  140.4586  165.8998 C.2     1  UNL1        0.3011
      8 O         143.4958  141.0163  165.7379 O.2     1  UNL1       -0.2655
      9 C         141.3765  139.9211  164.7086 C.2     1  UNL1        0.2931
     10 N         141.7548  139.8093  163.2614 N.2     1  UNL1       -0.0280
     11 C         140.6056  139.1826  162.5290 C.2     1  UNL1        0.3755
     12 N         139.5170  138.9070  163.5235 N.2     1  UNL1       -0.0331
     13 C         139.9935  139.3634  164.8706 C.3     1  UNL1        0.3665
     14 N         139.3467  139.3432  166.2238 N.am    1  UNL1       -0.2170
     15 C         140.0829  139.8808  167.4151 C.2     1  UNL1        0.3165
     16 O         139.4361  139.8606  168.7683 O.2     1  UNL1       -0.2518
     17 C         137.9637  138.7856  166.3859 C.3     1  UNL1        0.0994
     18 C         137.7652  137.3077  166.5488 C.3     1  UNL1        0.0235
     19 C         142.2022  140.9760  168.4444 C.3     1  UNL1        0.1029
     20 C         142.5461  142.9272  170.1249 C.3     1  UNL1        0.0018
     21 C         142.1429  142.4402  168.7647 C.3     1  UNL1        0.0220
     22 C         142.0625  138.1230  157.5656 C.3     1  UNL1        0.2028
     23 C         142.6096  136.7469  157.3271 C.1     1  UNL1       -0.0594
     24 C         143.1566  135.3707  157.0886 C.1     1  UNL1       -0.0623
     25 C         143.7037  133.9945  156.8501 C.ar    1  UNL1        0.0447
     26 C         144.5163  133.3158  157.9126 C.ar    1  UNL1        0.0084
     27 C         145.0634  131.9397  157.6740 C.ar    1  UNL1        0.0037
     28 C         144.7979  131.2423  156.3728 C.ar    1  UNL1        0.0372
     29 C         143.9853  131.9210  155.3102 C.ar    1  UNL1        0.1474
     30 C         143.4382  133.2971  155.5489 C.ar    1  UNL1        0.0454
     31 O         143.7198  131.2236  154.0090 O.3     1  UNL1       -0.4044
     32 C         143.6992  129.7247  153.9519 C.3     1  UNL1        0.5753
     33 F         143.6786  128.2260  153.8949 F       1  UNL1       -0.1328
     34 F         142.3397  129.7193  154.5858 F       1  UNL1       -0.1328
     35 F         145.0587  129.7302  153.3180 F       1  UNL1       -0.1328
@<TRIPOS>BOND
     1    20    21    1
     2    21    19    1
     3    19     6    1
     4     6     7   am
     5     7     8    2
     6     7     9    1
     7     9    10    2
     8    10    11    1
     9    11     1    1
    10     1     2   ar
    11     2     3   ar
    12     3     4   ar
    13     4    22    1
    14    22    23    1
    15    23    24    3
    16    24    25    1
    17    25    26   ar
    18    26    27   ar
    19    27    28   ar
    20    28    29   ar
    21    29    31    1
    22    31    32    1
    23    32    33    1
    24    32    34    1
    25    32    35    1
    26    29    30   ar
    27     4     5   ar
    28    11    12    2
    29    12    13    1
    30    13    14    1
    31    14    17    1
    32    17    18    1
    33    14    15   am
    34    15    16    2
    35    15     6   am
    36    13     9    1
    37     5     1   ar
    38    30    25   ar
@<TRIPOS>MOLECULE
*****
 35 38 0 0 0
SMALL
GASTEIGER

@<TRIPOS>ATOM
      1 C         140.6621  143.6450  162.4895 C.ar    1  UNL1        0.1275
      2 C         139.9632  144.9668  162.3696 C.ar    1  UNL1        0.1294
      3 N         139.8463  145.2987  160.9115 N.ar    1  UNL1       -0.1665
      4 N         140.4729  144.1820  160.1302 N.ar    1  UNL1       -0.2358
      5 C         140.9772  143.1599  161.1055 C.ar    1  UNL1        0.1055
      6 N         141.6817  141.1271  168.3396 N.am    1  UNL1       -0.2076
      7 C         141.0237  142.2657  167.6179 C.2     1  UNL1        0.3011
      8 O         140.2735  143.3099  168.3905 O.2     1  UNL1       -0.2655
      9 C         141.1160  142.3600  166.1238 C.2     1  UNL1        0.2931
     10 N         140.5736  143.3596  165.1458 N.2     1  UNL1       -0.0280
     11 C         140.9886  142.9332  163.7689 C.2     1  UNL1        0.3755
     12 N         141.7875  141.6700  163.8959 N.2     1  UNL1       -0.0331
     13 C         141.8663  141.3157  165.3513 C.3     1  UNL1        0.3665
     14 N         142.5242  140.1772  166.0730 N.am    1  UNL1       -0.2170
     15 C         142.4318  140.0829  167.5672 C.2     1  UNL1        0.3165
     16 O         143.0898  138.9443  168.2889 O.2     1  UNL1       -0.2518
     17 C         143.2744  139.1329  165.3006 C.3     1  UNL1        0.0994
     18 C         144.5346  139.4986  164.5737 C.3     1  UNL1        0.0235
     19 C         141.5893  141.0328  169.8339 C.3     1  UNL1        0.1029
     20 C         139.0907  140.3369  169.9839 C.3     1  UNL1        0.0018
     21 C         140.5049  140.2130  170.4681 C.3     1  UNL1        0.0220
     22 C         140.5771  144.1015  158.6360 C.3     1  UNL1        0.2028
     23 C         139.4539  143.5105  157.8366 C.1     1  UNL1       -0.0594
     24 C         138.3306  142.9196  157.0372 C.1     1  UNL1       -0.0623
     25 C         137.2073  142.3287  156.2378 C.ar    1  UNL1        0.0447
     26 C         136.8326  142.9272  154.9144 C.ar    1  UNL1        0.0084
     27 C         135.7092  142.3362  154.1151 C.ar    1  UNL1        0.0037
     28 C         134.9606  141.1467  154.6392 C.ar    1  UNL1        0.0372
     29 C         135.3353  140.5482  155.9626 C.ar    1  UNL1        0.1474
     30 C         136.4586  141.1391  156.7619 C.ar    1  UNL1        0.0454
     31 O         134.5867  139.3587  156.4866 O.3     1  UNL1       -0.4044
     32 C         133.2698  139.5471  157.1799 C.3     1  UNL1        0.5753
     33 F         131.9530  139.7355  157.8730 F       1  UNL1       -0.1328
     34 F         133.9592  139.4716  158.5099 F       1  UNL1       -0.1328
     35 F         132.5805  139.6225  155.8497 F       1  UNL1       -0.1328
@<TRIPOS>BOND
     1    20    21    1
     2    21    19    1
     3    19     6    1
     4     6     7   am
     5     7     8    2
     6     7     9    1
     7     9    10    2
     8    10    11    1
     9    11     1    1
    10     1     2   ar
    11     2     3   ar
    12     3     4   ar
    13     4    22    1
    14    22    23    1
    15    23    24    3
    16    24    25    1
    17    25    26   ar
    18    26    27   ar
    19    27    28   ar
    20    28    29   ar
    21    29    31    1
    22    31    32    1
    23    32    33    1
    24    32    34    1
    25    32    35    1
    26    29    30   ar
    27     4     5   ar
    28    11    12    2
    29    12    13    1
    30    13    14    1
    31    14    17    1
    32    17    18    1
    33    14    15   am
    34    15    16    2
    35    15     6   am
    36    13     9    1
    37     5     1   ar
    38    30    25   ar
@<TRIPOS>MOLECULE
*****
 35 38 0 0 0
SMALL
GASTEIGER

@<TRIPOS>ATOM
      1 C         140.7797  143.4325  159.8279 C.ar    1  UNL1        0.1275
      2 C         140.3646  144.7862  159.3329 C.ar    1  UNL1        0.1294
      3 N         139.9007  145.5888  160.5122 N.ar    1  UNL1       -0.1665
      4 N         140.0291  144.7311  161.7361 N.ar    1  UNL1       -0.2358
      5 C         140.5724  143.3984  161.3132 C.ar    1  UNL1        0.1055
      6 N         142.3681  138.3081  156.2474 N.am    1  UNL1       -0.2076
      7 C         141.2362  138.9499  156.9938 C.2     1  UNL1        0.3011
      8 O         139.8899  138.2894  157.0277 O.2     1  UNL1       -0.2655
      9 C         141.4509  140.2523  157.7064 C.2     1  UNL1        0.2931
     10 N         140.5312  141.1158  158.5179 N.2     1  UNL1       -0.0280
     11 C         141.3092  142.3099  158.9856 C.2     1  UNL1        0.3755
     12 N         142.7096  142.1845  158.4631 N.2     1  UNL1       -0.0331
     13 C         142.7972  140.9128  157.6724 C.3     1  UNL1        0.3665
     14 N         143.9289  140.2709  156.9260 N.am    1  UNL1       -0.2170
     15 C         143.7143  138.9685  156.2135 C.2     1  UNL1        0.3165
     16 O         144.8461  138.3267  155.4670 O.2     1  UNL1       -0.2518
     17 C         145.2752  140.9314  156.8921 C.3     1  UNL1        0.0994
     18 C         145.6363  141.8403  155.7548 C.3     1  UNL1        0.0235
     19 C         142.1534  137.0056  155.5348 C.3     1  UNL1        0.1029
     20 C         143.6435  135.0635  156.4054 C.3     1  UNL1        0.0018
     21 C         142.2965  135.7111  156.2790 C.3     1  UNL1        0.0220
     22 C         139.6762  145.1351  163.1368 C.3     1  UNL1        0.2028
     23 C         139.7928  144.1427  164.2555 C.1     1  UNL1       -0.0594
     24 C         139.9094  143.1503  165.3743 C.1     1  UNL1       -0.0623
     25 C         140.0261  142.1579  166.4931 C.ar    1  UNL1        0.0447
     26 C         139.3832  140.8083  166.3687 C.ar    1  UNL1        0.0084
     27 C         139.5000  139.8161  167.4875 C.ar    1  UNL1        0.0037
     28 C         140.2596  140.1733  168.7307 C.ar    1  UNL1        0.0372
     29 C         140.9025  141.5228  168.8550 C.ar    1  UNL1        0.1474
     30 C         140.7857  142.5151  167.7362 C.ar    1  UNL1        0.0454
     31 O         141.6621  141.8801  170.0981 O.3     1  UNL1       -0.4044
     32 C         143.1118  142.2554  170.0094 C.3     1  UNL1        0.5753
     33 F         144.5613  142.6307  169.9208 F       1  UNL1       -0.1328
     34 F         143.4461  140.8603  169.5711 F       1  UNL1       -0.1328
     35 F         142.7774  143.6505  170.4477 F       1  UNL1       -0.1328
@<TRIPOS>BOND
     1    20    21    1
     2    21    19    1
     3    19     6    1
     4     6     7   am
     5     7     8    2
     6     7     9    1
     7     9    10    2
     8    10    11    1
     9    11     1    1
    10     1     2   ar
    11     2     3   ar
    12     3     4   ar
    13     4    22    1
    14    22    23    1
    15    23    24    3
    16    24    25    1
    17    25    26   ar
    18    26    27   ar
    19    27    28   ar
    20    28    29   ar
    21    29    31    1
    22    31    32    1
    23    32    33    1
    24    32    34    1
    25    32    35    1
    26    29    30   ar
    27     4     5   ar
    28    11    12    2
    29    12    13    1
    30    13    14    1
    31    14    17    1
    32    17    18    1
    33    14    15   am
    34    15    16    2
    35    15     6   am
    36    13     9    1
    37     5     1   ar
    38    30    25   ar
