@<TRIPOS>MOLECULE
*****
 30 34 0 0 0
SMALL
GASTEIGER

@<TRIPOS>ATOM
      1 C         140.4803  141.5337  167.5142 C.ar    1  UNL1        0.1346
      2 C         139.9475  140.1678  167.1973 C.ar    1  UNL1        0.0500
      3 C         139.5131  139.8379  165.7999 C.ar    1  UNL1        0.0752
      4 N         139.6115  140.8738  164.7196 N.ar    1  UNL1       -0.2302
      5 C         140.1444  142.2397  165.0366 C.ar    1  UNL1        0.1603
      6 N         140.5788  142.5697  166.4339 N.ar    1  UNL1       -0.2122
      7 C         140.2428  143.2757  163.9562 C.2     1  UNL1        0.0332
      8 C         139.0473  144.1120  163.6079 C.2     1  UNL1        0.0501
      9 C         139.1457  145.1479  162.5277 C.2     1  UNL1        0.2355
     10 N         140.4396  145.3475  161.7955 N.2     1  UNL1       -0.0341
     11 C         141.6351  144.5112  162.1438 C.2     1  UNL1        0.3594
     12 N         143.0324  144.4817  161.5991 N.2     1  UNL1       -0.0344
     13 C         143.7976  143.4275  162.3429 C.2     1  UNL1        0.2320
     14 C         142.8732  142.8055  163.3472 C.2     1  UNL1        0.0409
     15 C         141.5367  143.4752  163.2241 C.3     1  UNL1        0.1630
     16 C         143.3219  142.3306  168.0528 C.3     1  UNL1        0.0241
     17 C         142.3355  142.2621  169.1808 C.3     1  UNL1        0.1038
     18 C         142.7700  142.5920  170.5780 C.3     1  UNL1        0.1618
     19 O         141.7836  142.5235  171.7060 O.3     1  UNL1       -0.3502
     20 C         140.3628  142.1250  171.4368 C.3     1  UNL1        0.1636
     21 C         139.9283  141.7950  170.0395 C.3     1  UNL1        0.1242
     22 N         140.9147  141.8636  168.9115 N.pl3   1  UNL1       -0.2897
     23 C         138.9802  138.4720  165.4830 C.3     1  UNL1        0.1119
     24 C         138.1731  137.2127  165.5959 C.3     1  UNL1        0.0204
     25 C         138.0054  138.3046  166.6107 C.3     1  UNL1        0.0204
     26 S         139.7700  138.1651  164.2452 S.3     1  UNL1        0.0687
     27 C         140.5598  137.8582  163.0075 C.3     1  UNL1        0.1170
     28 N         138.5764  138.5000  163.4006 N.2     1  UNL1       -0.2504
     29 O         140.9635  137.8302  165.0898 O.2     1  UNL1       -0.2461
     30 H         137.7359  138.7844  163.8270 H       1  UNL1        0.1971
@<TRIPOS>BOND
     1    17    16    1
     2    17    18    1
     3    18    19    1
     4    19    20    1
     5    20    21    1
     6    21    22    1
     7    22     1    1
     8     1     2   ar
     9     2     3   ar
    10     3    23    1
    11    23    26    1
    12    26    27    1
    13    26    28    2
    14    26    29    2
    15    23    24    1
    16    24    25    1
    17     3     4   ar
    18     4     5   ar
    19     5     7    1
    20     7     8    2
    21     8     9    1
    22     9    10    2
    23    10    11    1
    24    11    12    2
    25    12    13    1
    26    13    14    2
    27    14    15    1
    28     5     6   ar
    29    22    17    1
    30     6     1   ar
    31    25    23    1
    32    15     7    1
    33    15    11    1
    34    28    30    1
@<TRIPOS>MOLECULE
*****
 30 34 0 0 0
SMALL
GASTEIGER

@<TRIPOS>ATOM
      1 C         140.9913  142.6365  164.4221 C.ar    1  UNL1        0.1346
      2 C         141.7788  141.5888  163.6926 C.ar    1  UNL1        0.0500
      3 C         142.6537  140.6402  164.4575 C.ar    1  UNL1        0.0752
      4 N         142.7410  140.7394  165.9515 N.ar    1  UNL1       -0.2302
      5 C         141.9534  141.7872  166.6810 C.ar    1  UNL1        0.1603
      6 N         141.0786  142.7357  165.9163 N.ar    1  UNL1       -0.2122
      7 C         142.0408  141.8863  168.1752 C.2     1  UNL1        0.0332
      8 C         143.2225  142.5529  168.8148 C.2     1  UNL1        0.0501
      9 C         143.3098  142.6521  170.3089 C.2     1  UNL1        0.2355
     10 N         142.2154  142.0846  171.1635 N.2     1  UNL1       -0.0341
     11 C         141.0337  141.4180  170.5239 C.2     1  UNL1        0.3594
     12 N         139.8109  140.7710  171.1037 N.2     1  UNL1       -0.0344
     13 C         138.9678  140.2720  169.9678 C.2     1  UNL1        0.2320
     14 C         139.6696  140.6106  168.6860 C.2     1  UNL1        0.0409
     15 C         140.9464  141.3188  169.0297 C.3     1  UNL1        0.1630
     16 C         138.0180  142.2387  164.3877 C.3     1  UNL1        0.0241
     17 C         138.6299  143.3862  163.6401 C.3     1  UNL1        0.1038
     18 C         137.7550  144.3348  162.8754 C.3     1  UNL1        0.1618
     19 O         138.3669  145.4823  162.1278 O.3     1  UNL1       -0.3502
     20 C         139.8534  145.6813  162.1449 C.3     1  UNL1        0.1636
     21 C         140.7284  144.7327  162.9097 C.3     1  UNL1        0.1242
     22 N         140.1165  143.5851  163.6573 N.pl3   1  UNL1       -0.2897
     23 C         143.4412  139.5925  163.7280 C.3     1  UNL1        0.1119
     24 C         144.6144  138.8642  163.1420 C.3     1  UNL1        0.0204
     25 C         144.8251  140.1486  163.8878 C.3     1  UNL1        0.0204
     26 S         142.3307  138.6726  163.3149 S.3     1  UNL1        0.0687
     27 C         141.2203  137.7528  162.9018 C.3     1  UNL1        0.1170
     28 N         142.2267  138.1659  164.7229 N.2     1  UNL1       -0.2504
     29 O         142.4348  139.1793  161.9069 O.2     1  UNL1       -0.2461
     30 H         142.8237  138.5225  165.4198 H       1  UNL1        0.1971
@<TRIPOS>BOND
     1    17    16    1
     2    17    18    1
     3    18    19    1
     4    19    20    1
     5    20    21    1
     6    21    22    1
     7    22     1    1
     8     1     2   ar
     9     2     3   ar
    10     3    23    1
    11    23    26    1
    12    26    27    1
    13    26    28    2
    14    26    29    2
    15    23    24    1
    16    24    25    1
    17     3     4   ar
    18     4     5   ar
    19     5     7    1
    20     7     8    2
    21     8     9    1
    22     9    10    2
    23    10    11    1
    24    11    12    2
    25    12    13    1
    26    13    14    2
    27    14    15    1
    28     5     6   ar
    29    22    17    1
    30     6     1   ar
    31    25    23    1
    32    15     7    1
    33    15    11    1
    34    28    30    1
@<TRIPOS>MOLECULE
*****
 30 34 0 0 0
SMALL
GASTEIGER

@<TRIPOS>ATOM
      1 C         140.8286  141.1648  167.4806 C.ar    1  UNL1        0.1346
      2 C         140.2062  139.8953  166.9796 C.ar    1  UNL1        0.0500
      3 C         140.2124  139.5853  165.5119 C.ar    1  UNL1        0.0752
      4 N         140.8408  140.5448  164.5454 N.ar    1  UNL1       -0.2302
      5 C         141.4632  141.8144  165.0464 C.ar    1  UNL1        0.1603
      6 N         141.4571  142.1244  166.5140 N.ar    1  UNL1       -0.2122
      7 C         142.0917  142.7739  164.0798 C.2     1  UNL1        0.0332
      8 C         143.5671  142.7145  163.8163 C.2     1  UNL1        0.0501
      9 C         144.1956  143.6740  162.8497 C.2     1  UNL1        0.2355
     10 N         143.3486  144.6930  162.1465 N.2     1  UNL1       -0.0341
     11 C         141.8731  144.7524  162.4101 C.2     1  UNL1        0.3594
     12 N         140.7921  145.6410  161.8700 N.2     1  UNL1       -0.0344
     13 C         139.4956  145.2307  162.5028 C.2     1  UNL1        0.2320
     14 C         139.7752  144.0885  163.4340 C.2     1  UNL1        0.0409
     15 C         141.2447  143.7929  163.3767 C.3     1  UNL1        0.1630
     16 C         142.5247  139.5558  169.3606 C.3     1  UNL1        0.0241
     17 C         141.6705  140.6703  169.8882 C.3     1  UNL1        0.1038
     18 C         141.6644  140.9803  171.3558 C.3     1  UNL1        0.1618
     19 O         140.8103  142.0947  171.8834 O.3     1  UNL1       -0.3502
     20 C         139.9622  142.8992  170.9435 C.3     1  UNL1        0.1636
     21 C         139.9682  142.5893  169.4758 C.3     1  UNL1        0.1242
     22 N         140.8225  141.4748  168.9482 N.pl3   1  UNL1       -0.2897
     23 C         139.5900  138.3158  165.0110 C.3     1  UNL1        0.1119
     24 C         138.6327  137.1673  164.8902 C.3     1  UNL1        0.0204
     25 C         138.4095  138.2234  165.9318 C.3     1  UNL1        0.0204
     26 S         140.5543  137.9674  163.9161 S.3     1  UNL1        0.0687
     27 C         141.5187  137.6190  162.8214 C.3     1  UNL1        0.1170
     28 N         139.5937  138.5069  162.8982 N.2     1  UNL1       -0.2504
     29 O         141.5150  137.4279  164.9340 O.2     1  UNL1       -0.2461
     30 H         138.7303  138.8820  163.1865 H       1  UNL1        0.1971
@<TRIPOS>BOND
     1    17    16    1
     2    17    18    1
     3    18    19    1
     4    19    20    1
     5    20    21    1
     6    21    22    1
     7    22     1    1
     8     1     2   ar
     9     2     3   ar
    10     3    23    1
    11    23    26    1
    12    26    27    1
    13    26    28    2
    14    26    29    2
    15    23    24    1
    16    24    25    1
    17     3     4   ar
    18     4     5   ar
    19     5     7    1
    20     7     8    2
    21     8     9    1
    22     9    10    2
    23    10    11    1
    24    11    12    2
    25    12    13    1
    26    13    14    2
    27    14    15    1
    28     5     6   ar
    29    22    17    1
    30     6     1   ar
    31    25    23    1
    32    15     7    1
    33    15    11    1
    34    28    30    1
@<TRIPOS>MOLECULE
*****
 30 34 0 0 0
SMALL
GASTEIGER

@<TRIPOS>ATOM
      1 C         142.1089  141.6886  164.7303 C.ar    1  UNL1        0.1346
      2 C         141.1065  140.8121  164.0398 C.ar    1  UNL1        0.0500
      3 C         140.3249  139.8023  164.8270 C.ar    1  UNL1        0.0752
      4 N         140.5459  139.6690  166.3046 N.ar    1  UNL1       -0.2302
      5 C         141.5484  140.5456  166.9951 C.ar    1  UNL1        0.1603
      6 N         142.3299  141.5553  166.2080 N.ar    1  UNL1       -0.2122
      7 C         141.7693  140.4123  168.4728 C.2     1  UNL1        0.0332
      8 C         142.6452  139.3168  169.0044 C.2     1  UNL1        0.0501
      9 C         142.8661  139.1835  170.4819 C.2     1  UNL1        0.2355
     10 N         142.2111  140.1457  171.4281 N.2     1  UNL1       -0.0341
     11 C         141.3352  141.2413  170.8965 C.2     1  UNL1        0.3594
     12 N         140.5629  142.3300  171.5808 N.2     1  UNL1       -0.0344
     13 C         139.8647  143.1361  170.5260 C.2     1  UNL1        0.2320
     14 C         140.2054  142.5457  169.1899 C.2     1  UNL1        0.0409
     15 C         141.1143  141.3745  169.4189 C.3     1  UNL1        0.1630
     16 C         144.2902  140.7856  162.8792 C.3     1  UNL1        0.0241
     17 C         143.9811  142.2468  163.0177 C.3     1  UNL1        0.1038
     18 C         144.7627  143.2566  162.2305 C.3     1  UNL1        0.1618
     19 O         144.4535  144.7178  162.3690 O.3     1  UNL1       -0.3502
     20 C         143.3630  145.1694  163.2945 C.3     1  UNL1        0.1636
     21 C         142.5814  144.1597  164.0817 C.3     1  UNL1        0.1242
     22 N         142.8905  142.6983  163.9432 N.pl3   1  UNL1       -0.2897
     23 C         139.3225  138.9258  164.1365 C.3     1  UNL1        0.1119
     24 C         138.6496  137.6871  163.6237 C.3     1  UNL1        0.0204
     25 C         139.9233  137.5786  164.4085 C.3     1  UNL1        0.0204
     26 S         138.3735  139.9687  163.6247 S.3     1  UNL1        0.0687
     27 C         137.4246  141.0115  163.1129 C.3     1  UNL1        0.1170
     28 N         137.9510  140.2744  165.0312 N.2     1  UNL1       -0.2504
     29 O         138.7960  139.6629  162.2183 O.2     1  UNL1       -0.2461
     30 H         138.3518  139.7820  165.7836 H       1  UNL1        0.1971
@<TRIPOS>BOND
     1    17    16    1
     2    17    18    1
     3    18    19    1
     4    19    20    1
     5    20    21    1
     6    21    22    1
     7    22     1    1
     8     1     2   ar
     9     2     3   ar
    10     3    23    1
    11    23    26    1
    12    26    27    1
    13    26    28    2
    14    26    29    2
    15    23    24    1
    16    24    25    1
    17     3     4   ar
    18     4     5   ar
    19     5     7    1
    20     7     8    2
    21     8     9    1
    22     9    10    2
    23    10    11    1
    24    11    12    2
    25    12    13    1
    26    13    14    2
    27    14    15    1
    28     5     6   ar
    29    22    17    1
    30     6     1   ar
    31    25    23    1
    32    15     7    1
    33    15    11    1
    34    28    30    1
@<TRIPOS>MOLECULE
*****
 30 34 0 0 0
SMALL
GASTEIGER

@<TRIPOS>ATOM
      1 C         141.4552  141.4400  167.0509 C.ar    1  UNL1        0.1346
      2 C         142.7574  141.9067  166.4710 C.ar    1  UNL1        0.0500
      3 C         143.0763  141.6371  165.0303 C.ar    1  UNL1        0.0752
      4 N         142.0931  140.9009  164.1695 N.ar    1  UNL1       -0.2302
      5 C         140.7907  140.4342  164.7494 C.ar    1  UNL1        0.1603
      6 N         140.4718  140.7037  166.1901 N.ar    1  UNL1       -0.2122
      7 C         139.8074  139.6979  163.8886 C.2     1  UNL1        0.0332
      8 C         139.6146  138.2209  164.0652 C.2     1  UNL1        0.0501
      9 C         138.6314  137.4846  163.2044 C.2     1  UNL1        0.2355
     10 N         137.8407  138.2254  162.1669 N.2     1  UNL1       -0.0341
     11 C         138.0335  139.7024  161.9904 C.2     1  UNL1        0.3594
     12 N         137.4014  140.6927  161.0577 N.2     1  UNL1       -0.0344
     13 C         137.9940  142.0410  161.3422 C.2     1  UNL1        0.2320
     14 C         138.9924  141.8840  162.4506 C.2     1  UNL1        0.0409
     15 C         139.0168  140.4387  162.8512 C.3     1  UNL1        0.1630
     16 C         142.2423  139.4551  169.1583 C.3     1  UNL1        0.0241
     17 C         141.5298  140.7171  169.5453 C.3     1  UNL1        0.1038
     18 C         141.2108  140.9866  170.9860 C.3     1  UNL1        0.1618
     19 O         140.4984  142.2486  171.3730 O.3     1  UNL1       -0.3502
     20 C         140.1048  143.2410  170.3194 C.3     1  UNL1        0.1636
     21 C         140.4237  142.9715  168.8787 C.3     1  UNL1        0.1242
     22 N         141.1362  141.7095  168.4916 N.pl3   1  UNL1       -0.2897
     23 C         144.3786  142.1038  164.4504 C.3     1  UNL1        0.1119
     24 C         145.7738  142.0589  163.9013 C.3     1  UNL1        0.0204
     25 C         145.0983  140.7926  164.3376 C.3     1  UNL1        0.0204
     26 S         144.1111  143.5771  164.3618 S.3     1  UNL1        0.0687
     27 C         143.8436  145.0504  164.2733 C.3     1  UNL1        0.1170
     28 N         143.2653  143.3503  163.1439 N.2     1  UNL1       -0.2504
     29 O         144.9569  143.8039  165.5797 O.2     1  UNL1       -0.2461
     30 H         143.1398  142.4385  162.7946 H       1  UNL1        0.1971
@<TRIPOS>BOND
     1    17    16    1
     2    17    18    1
     3    18    19    1
     4    19    20    1
     5    20    21    1
     6    21    22    1
     7    22     1    1
     8     1     2   ar
     9     2     3   ar
    10     3    23    1
    11    23    26    1
    12    26    27    1
    13    26    28    2
    14    26    29    2
    15    23    24    1
    16    24    25    1
    17     3     4   ar
    18     4     5   ar
    19     5     7    1
    20     7     8    2
    21     8     9    1
    22     9    10    2
    23    10    11    1
    24    11    12    2
    25    12    13    1
    26    13    14    2
    27    14    15    1
    28     5     6   ar
    29    22    17    1
    30     6     1   ar
    31    25    23    1
    32    15     7    1
    33    15    11    1
    34    28    30    1
@<TRIPOS>MOLECULE
*****
 30 34 0 0 0
SMALL
GASTEIGER

@<TRIPOS>ATOM
      1 C         141.6299  140.8439  163.7305 C.ar    1  UNL1        0.1346
      2 C         140.5801  141.8044  163.2558 C.ar    1  UNL1        0.0500
      3 C         139.9340  142.7488  164.2258 C.ar    1  UNL1        0.0752
      4 N         140.3378  142.7327  165.6702 N.ar    1  UNL1       -0.2302
      5 C         141.3877  141.7722  166.1449 C.ar    1  UNL1        0.1603
      6 N         142.0338  140.8278  165.1750 N.ar    1  UNL1       -0.2122
      7 C         141.7915  141.7562  167.5894 C.2     1  UNL1        0.0332
      8 C         143.1308  142.2928  167.9998 C.2     1  UNL1        0.0501
      9 C         143.5346  142.2767  169.4443 C.2     1  UNL1        0.2355
     10 N         142.5991  141.7241  170.4785 N.2     1  UNL1       -0.0341
     11 C         141.2599  141.1875  170.0682 C.2     1  UNL1        0.3594
     12 N         140.1356  140.5845  170.8571 N.2     1  UNL1       -0.0344
     13 C         139.0370  140.2278  169.9001 C.2     1  UNL1        0.2320
     14 C         139.4822  140.6104  168.5198 C.2     1  UNL1        0.0409
     15 C         140.8561  141.2035  168.6236 C.3     1  UNL1        0.1630
     16 C         144.2752  141.5377  162.4971 C.3     1  UNL1        0.0241
     17 C         143.5986  140.2464  162.1439 C.3     1  UNL1        0.1038
     18 C         144.2447  139.3020  161.1740 C.3     1  UNL1        0.1618
     19 O         143.5681  138.0107  160.8208 O.3     1  UNL1       -0.3502
     20 C         142.2455  137.6637  161.4374 C.3     1  UNL1        0.1636
     21 C         141.5993  138.6081  162.4073 C.3     1  UNL1        0.1242
     22 N         142.2760  139.8995  162.7606 N.pl3   1  UNL1       -0.2897
     23 C         138.8842  143.7092  163.7511 C.3     1  UNL1        0.1119
     24 C         137.5462  144.3676  163.5880 C.3     1  UNL1        0.0204
     25 C         137.6901  143.1727  164.4835 C.3     1  UNL1        0.0204
     26 S         139.7137  144.5793  162.8539 S.3     1  UNL1        0.0687
     27 C         140.5431  145.4492  161.9567 C.3     1  UNL1        0.1170
     28 N         140.4284  145.1324  164.0511 N.2     1  UNL1       -0.2504
     29 O         138.9989  144.0261  161.6567 O.2     1  UNL1       -0.2461
     30 H         140.1915  144.8194  164.9539 H       1  UNL1        0.1971
@<TRIPOS>BOND
     1    17    16    1
     2    17    18    1
     3    18    19    1
     4    19    20    1
     5    20    21    1
     6    21    22    1
     7    22     1    1
     8     1     2   ar
     9     2     3   ar
    10     3    23    1
    11    23    26    1
    12    26    27    1
    13    26    28    2
    14    26    29    2
    15    23    24    1
    16    24    25    1
    17     3     4   ar
    18     4     5   ar
    19     5     7    1
    20     7     8    2
    21     8     9    1
    22     9    10    2
    23    10    11    1
    24    11    12    2
    25    12    13    1
    26    13    14    2
    27    14    15    1
    28     5     6   ar
    29    22    17    1
    30     6     1   ar
    31    25    23    1
    32    15     7    1
    33    15    11    1
    34    28    30    1
@<TRIPOS>MOLECULE
*****
 30 34 0 0 0
SMALL
GASTEIGER

@<TRIPOS>ATOM
      1 C         141.7964  141.8476  167.2217 C.ar    1  UNL1        0.1346
      2 C         142.9023  141.0811  166.5589 C.ar    1  UNL1        0.0500
      3 C         143.0070  141.0582  165.0627 C.ar    1  UNL1        0.0752
      4 N         142.0058  141.8018  164.2294 N.ar    1  UNL1       -0.2302
      5 C         140.8998  142.5684  164.8922 C.ar    1  UNL1        0.1603
      6 N         140.7951  142.5913  166.3884 N.ar    1  UNL1       -0.2122
      7 C         139.8985  143.3120  164.0588 C.2     1  UNL1        0.0332
      8 C         138.4770  143.4309  164.5228 C.2     1  UNL1        0.0501
      9 C         137.4758  144.1744  163.6894 C.2     1  UNL1        0.2355
     10 N         137.8960  144.7992  162.3920 N.2     1  UNL1       -0.0341
     11 C         139.3175  144.6804  161.9281 C.2     1  UNL1        0.3594
     12 N         140.0193  145.1880  160.7035 N.2     1  UNL1       -0.0344
     13 C         141.4543  144.7581  160.7800 C.2     1  UNL1        0.2320
     14 C         141.6394  143.9848  162.0519 C.2     1  UNL1        0.0409
     15 C         140.3187  143.9368  162.7615 C.3     1  UNL1        0.1630
     16 C         139.7865  140.1074  168.6116 C.3     1  UNL1        0.0241
     17 C         140.6867  141.0004  169.4128 C.3     1  UNL1        0.1038
     18 C         140.5820  141.0234  170.9090 C.3     1  UNL1        0.1618
     19 O         141.4823  141.9164  171.7102 O.3     1  UNL1       -0.3502
     20 C         142.4873  142.7866  171.0154 C.3     1  UNL1        0.1636
     21 C         142.5920  142.7637  169.5191 C.3     1  UNL1        0.1242
     22 N         141.6917  141.8706  168.7179 N.pl3   1  UNL1       -0.2897
     23 C         144.1129  140.2917  164.3999 C.3     1  UNL1        0.1119
     24 C         145.0767  139.1815  164.1020 C.3     1  UNL1        0.0204
     25 C         144.0876  139.0362  165.2204 C.3     1  UNL1        0.0204
     26 S         144.5223  141.2810  163.3494 S.3     1  UNL1        0.0687
     27 C         144.9316  142.2703  162.2989 C.3     1  UNL1        0.1170
     28 N         143.7598  140.5021  162.3188 N.2     1  UNL1       -0.2504
     29 O         145.2848  142.0599  164.3799 O.2     1  UNL1       -0.2461
     30 H         143.2769  139.6842  162.5778 H       1  UNL1        0.1971
@<TRIPOS>BOND
     1    17    16    1
     2    17    18    1
     3    18    19    1
     4    19    20    1
     5    20    21    1
     6    21    22    1
     7    22     1    1
     8     1     2   ar
     9     2     3   ar
    10     3    23    1
    11    23    26    1
    12    26    27    1
    13    26    28    2
    14    26    29    2
    15    23    24    1
    16    24    25    1
    17     3     4   ar
    18     4     5   ar
    19     5     7    1
    20     7     8    2
    21     8     9    1
    22     9    10    2
    23    10    11    1
    24    11    12    2
    25    12    13    1
    26    13    14    2
    27    14    15    1
    28     5     6   ar
    29    22    17    1
    30     6     1   ar
    31    25    23    1
    32    15     7    1
    33    15    11    1
    34    28    30    1
@<TRIPOS>MOLECULE
*****
 30 34 0 0 0
SMALL
GASTEIGER

@<TRIPOS>ATOM
      1 C         140.5571  140.7402  164.1268 C.ar    1  UNL1        0.1346
      2 C         141.4890  141.7360  163.5024 C.ar    1  UNL1        0.0500
      3 C         142.5107  142.4389  164.3464 C.ar    1  UNL1        0.0752
      4 N         142.6005  142.1459  165.8146 N.ar    1  UNL1       -0.2302
      5 C         141.6686  141.1500  166.4391 C.ar    1  UNL1        0.1603
      6 N         140.6469  140.4471  165.5952 N.ar    1  UNL1       -0.2122
      7 C         141.7584  140.8570  167.9075 C.2     1  UNL1        0.0332
      8 C         142.3947  139.5837  168.3807 C.2     1  UNL1        0.0501
      9 C         142.4846  139.2907  169.8489 C.2     1  UNL1        0.2355
     10 N         141.9381  140.2710  170.8442 N.2     1  UNL1       -0.0341
     11 C         141.3018  141.5442  170.3711 C.2     1  UNL1        0.3594
     12 N         140.6801  142.6911  171.1115 N.2     1  UNL1       -0.0344
     13 C         140.2061  143.6929  170.1007 C.2     1  UNL1        0.2320
     14 C         140.5348  143.1652  168.7356 C.2     1  UNL1        0.0409
     15 C         141.2120  141.8372  168.9027 C.3     1  UNL1        0.1630
     16 C         140.5445  137.7442  163.9711 C.3     1  UNL1        0.0241
     17 C         139.5291  138.5394  163.2051 C.3     1  UNL1        0.1038
     18 C         138.5075  137.8365  162.3612 C.3     1  UNL1        0.1618
     19 O         137.4921  138.6316  161.5951 O.3     1  UNL1       -0.3502
     20 C         137.4984  140.1296  161.6729 C.3     1  UNL1        0.1636
     21 C         138.5201  140.8325  162.5168 C.3     1  UNL1        0.1242
     22 N         139.5355  140.0373  163.2829 N.pl3   1  UNL1       -0.2897
     23 C         143.4425  143.4347  163.7219 C.3     1  UNL1        0.1119
     24 C         143.9439  144.7214  163.1362 C.3     1  UNL1        0.0204
     25 C         142.5267  144.6180  163.6168 C.3     1  UNL1        0.0204
     26 S         144.6819  142.5972  163.6102 S.3     1  UNL1        0.0687
     27 C         145.9212  141.7597  163.4985 C.3     1  UNL1        0.1170
     28 N         145.1812  143.1631  164.9065 N.2     1  UNL1       -0.2504
     29 O         144.1826  142.0313  162.3138 O.2     1  UNL1       -0.2461
     30 H         144.6405  143.8248  165.3955 H       1  UNL1        0.1971
@<TRIPOS>BOND
     1    17    16    1
     2    17    18    1
     3    18    19    1
     4    19    20    1
     5    20    21    1
     6    21    22    1
     7    22     1    1
     8     1     2   ar
     9     2     3   ar
    10     3    23    1
    11    23    26    1
    12    26    27    1
    13    26    28    2
    14    26    29    2
    15    23    24    1
    16    24    25    1
    17     3     4   ar
    18     4     5   ar
    19     5     7    1
    20     7     8    2
    21     8     9    1
    22     9    10    2
    23    10    11    1
    24    11    12    2
    25    12    13    1
    26    13    14    2
    27    14    15    1
    28     5     6   ar
    29    22    17    1
    30     6     1   ar
    31    25    23    1
    32    15     7    1
    33    15    11    1
    34    28    30    1
@<TRIPOS>MOLECULE
*****
 30 34 0 0 0
SMALL
GASTEIGER

@<TRIPOS>ATOM
      1 C         141.8357  141.7172  167.2508 C.ar    1  UNL1        0.1346
      2 C         142.9976  140.9778  166.6564 C.ar    1  UNL1        0.0500
      3 C         143.1262  140.8561  165.1668 C.ar    1  UNL1        0.0752
      4 N         142.0931  141.4737  164.2719 N.ar    1  UNL1       -0.2302
      5 C         140.9312  142.2132  164.8664 C.ar    1  UNL1        0.1603
      6 N         140.8025  142.3349  166.3559 N.ar    1  UNL1       -0.2122
      7 C         139.8980  142.8308  163.9713 C.2     1  UNL1        0.0332
      8 C         139.7514  144.3225  163.9130 C.2     1  UNL1        0.0501
      9 C         138.7183  144.9401  163.0180 C.2     1  UNL1        0.2355
     10 N         137.8316  144.0661  162.1812 N.2     1  UNL1       -0.0341
     11 C         137.9782  142.5744  162.2396 C.2     1  UNL1        0.3594
     12 N         137.2526  141.4663  161.5356 N.2     1  UNL1       -0.0344
     13 C         137.8373  140.1638  161.9956 C.2     1  UNL1        0.2320
     14 C         138.9243  140.4669  162.9839 C.2     1  UNL1        0.0409
     15 C         139.0114  141.9568  163.1347 C.3     1  UNL1        0.1630
     16 C         139.7584  140.1208  168.7125 C.3     1  UNL1        0.0241
     17 C         140.6684  141.0407  169.4712 C.3     1  UNL1        0.1038
     18 C         140.5397  141.1625  170.9607 C.3     1  UNL1        0.1618
     19 O         141.4497  142.0824  171.7193 O.3     1  UNL1       -0.3502
     20 C         142.4883  142.8807  170.9887 C.3     1  UNL1        0.1636
     21 C         142.6170  142.7590  169.4991 C.3     1  UNL1        0.1242
     22 N         141.7070  141.8390  168.7403 N.pl3   1  UNL1       -0.2897
     23 C         144.2881  140.1167  164.5724 C.3     1  UNL1        0.1119
     24 C         145.3161  139.0459  164.3569 C.3     1  UNL1        0.0204
     25 C         144.3063  138.9056  165.4572 C.3     1  UNL1        0.0204
     26 S         144.6733  141.0711  163.4812 S.3     1  UNL1        0.0687
     27 C         145.0586  142.0255  162.3900 C.3     1  UNL1        0.1170
     28 N         143.9847  140.1981  162.4744 N.2     1  UNL1       -0.2504
     29 O         145.3620  141.9442  164.4879 O.2     1  UNL1       -0.2461
     30 H         143.5397  139.3691  162.7643 H       1  UNL1        0.1971
@<TRIPOS>BOND
     1    17    16    1
     2    17    18    1
     3    18    19    1
     4    19    20    1
     5    20    21    1
     6    21    22    1
     7    22     1    1
     8     1     2   ar
     9     2     3   ar
    10     3    23    1
    11    23    26    1
    12    26    27    1
    13    26    28    2
    14    26    29    2
    15    23    24    1
    16    24    25    1
    17     3     4   ar
    18     4     5   ar
    19     5     7    1
    20     7     8    2
    21     8     9    1
    22     9    10    2
    23    10    11    1
    24    11    12    2
    25    12    13    1
    26    13    14    2
    27    14    15    1
    28     5     6   ar
    29    22    17    1
    30     6     1   ar
    31    25    23    1
    32    15     7    1
    33    15    11    1
    34    28    30    1
