@<TRIPOS>MOLECULE
*****
 28 30 0 0 0
SMALL
GASTEIGER

@<TRIPOS>ATOM
      1 C         144.6816  142.3676  163.0154 C.3     1  UNL1        0.1610
      2 O         146.0222  142.0357  162.4302 O.3     1  UNL1       -0.3802
      3 C         143.3409  142.6995  163.6006 C.3     1  UNL1        0.1278
      4 N         143.6325  141.8103  164.7729 N.3     1  UNL1       -0.1504
      5 C         144.9732  141.4784  164.1877 C.3     1  UNL1        0.1278
      6 H         146.1334  142.5063  161.5893 H       1  UNL1        0.2105
      7 S         142.8907  141.4162  166.0157 S.O2    1  UNL1        0.0642
      8 O         142.2181  140.3070  165.2625 O.2     1  UNL1       -0.1527
      9 O         143.5633  142.5255  166.7690 O.2     1  UNL1       -0.1527
     10 C         142.1489  141.0222  167.2585 C.ar    1  UNL1        0.1327
     11 C         142.7201  139.9809  168.1746 C.ar    1  UNL1        0.0216
     12 C         141.9783  139.5869  169.4174 C.ar    1  UNL1        0.0128
     13 C         140.6653  140.2343  169.7441 C.ar    1  UNL1        0.0586
     14 CL        139.9234  139.8404  170.9868 Cl      1  UNL1       -0.0822
     15 C         140.0940  141.2756  168.8280 C.ar    1  UNL1        0.0241
     16 C         140.8358  141.6696  167.5851 C.ar    1  UNL1        0.0771
     17 CL        140.2646  142.7110  166.6690 Cl      1  UNL1       -0.0808
     18 C         144.3900  143.2568  161.8431 C.3     1  UNL1        0.2348
     19 O         143.6888  142.7034  160.6381 O.3     1  UNL1       -0.4728
     20 C         141.0435  145.3647  158.1543 C.ar    1  UNL1        0.0960
     21 C         142.1362  144.5722  157.5002 C.ar    1  UNL1        0.0157
     22 C         143.0180  143.6851  158.3281 C.ar    1  UNL1        0.0377
     23 C         142.8070  143.5905  159.8102 C.ar    1  UNL1        0.1410
     24 C         141.7143  144.3829  160.4643 C.ar    1  UNL1        0.0672
     25 C         140.8325  145.2700  159.6363 C.ar    1  UNL1        0.1527
     26 F         139.7397  146.0625  160.2905 F       1  UNL1       -0.2034
     27 N         139.2799  147.1389  156.4984 N.1     1  UNL1       -0.1908
     28 C         140.1617  146.2518  157.3263 C.1     1  UNL1        0.1027
@<TRIPOS>BOND
     1    27    28    3
     2    28    20    1
     3    20    21   ar
     4    21    22   ar
     5    22    23   ar
     6    23    19    1
     7    19    18    1
     8    18     1    1
     9     1     2    1
    10     1     3    1
    11     3     4    1
    12     4     7    1
    13     7     8    2
    14     7     9    2
    15     7    10    1
    16    10    11   ar
    17    11    12   ar
    18    12    13   ar
    19    13    14    1
    20    13    15   ar
    21    15    16   ar
    22    16    17    1
    23     4     5    1
    24    23    24   ar
    25    24    25   ar
    26    25    26    1
    27    25    20   ar
    28     5     1    1
    29    16    10   ar
    30     2     6    1
@<TRIPOS>MOLECULE
*****
 28 30 0 0 0
SMALL
GASTEIGER

@<TRIPOS>ATOM
      1 C         137.8380  140.7190  163.0818 C.3     1  UNL1        0.1610
      2 O         136.5103  141.4081  163.1929 O.3     1  UNL1       -0.3802
      3 C         139.1657  140.0298  162.9708 C.3     1  UNL1        0.1278
      4 N         138.9532  139.8582  161.4959 N.3     1  UNL1       -0.1504
      5 C         137.6256  140.5474  161.6069 C.3     1  UNL1        0.1278
      6 H         136.3536  141.6613  164.1160 H       1  UNL1        0.2105
      7 S         139.7419  139.2496  160.3744 S.O2    1  UNL1        0.0642
      8 O         139.1766  137.9010  160.7088 O.2     1  UNL1       -0.1527
      9 O         140.3072  140.5982  160.0400 O.2     1  UNL1       -0.1527
     10 C         140.5305  138.6410  159.2529 C.ar    1  UNL1        0.1327
     11 C         139.9061  138.4783  157.8989 C.ar    1  UNL1        0.0216
     12 C         140.6949  137.8697  156.7774 C.ar    1  UNL1        0.0128
     13 C         142.1079  137.4239  157.0101 C.ar    1  UNL1        0.0586
     14 CL        142.8967  136.8153  155.8887 Cl      1  UNL1       -0.0822
     15 C         142.7325  137.5865  158.3642 C.ar    1  UNL1        0.0241
     16 C         141.9437  138.1951  159.4857 C.ar    1  UNL1        0.0771
     17 CL        142.5682  138.3578  160.8398 Cl      1  UNL1       -0.0808
     18 C         138.0504  140.8906  164.5568 C.3     1  UNL1        0.2348
     19 O         139.0888  140.0722  165.2652 O.3     1  UNL1       -0.4728
     20 C         140.6893  141.4260  169.2471 C.ar    1  UNL1        0.0960
     21 C         141.1844  142.0646  167.9834 C.ar    1  UNL1        0.0157
     22 C         140.6509  141.6133  166.6561 C.ar    1  UNL1        0.0377
     23 C         139.6223  140.5235  166.5925 C.ar    1  UNL1        0.1410
     24 C         139.1272  139.8848  167.8562 C.ar    1  UNL1        0.0672
     25 C         139.6607  140.3361  169.1835 C.ar    1  UNL1        0.1527
     26 F         139.1656  139.6974  170.4472 F       1  UNL1       -0.2034
     27 N         141.7563  142.3285  171.9017 N.1     1  UNL1       -0.1908
     28 C         141.2228  141.8772  170.5744 C.1     1  UNL1        0.1027
@<TRIPOS>BOND
     1    27    28    3
     2    28    20    1
     3    20    21   ar
     4    21    22   ar
     5    22    23   ar
     6    23    19    1
     7    19    18    1
     8    18     1    1
     9     1     2    1
    10     1     3    1
    11     3     4    1
    12     4     7    1
    13     7     8    2
    14     7     9    2
    15     7    10    1
    16    10    11   ar
    17    11    12   ar
    18    12    13   ar
    19    13    14    1
    20    13    15   ar
    21    15    16   ar
    22    16    17    1
    23     4     5    1
    24    23    24   ar
    25    24    25   ar
    26    25    26    1
    27    25    20   ar
    28     5     1    1
    29    16    10   ar
    30     2     6    1
@<TRIPOS>MOLECULE
*****
 28 30 0 0 0
SMALL
GASTEIGER

@<TRIPOS>ATOM
      1 C         138.8650  144.5833  163.0939 C.3     1  UNL1        0.1610
      2 O         137.5248  144.7471  162.4403 O.3     1  UNL1       -0.3802
      3 C         140.2051  144.4195  163.7475 C.3     1  UNL1        0.1278
      4 N         139.6426  143.3466  164.6321 N.3     1  UNL1       -0.1504
      5 C         138.3024  143.5104  163.9785 C.3     1  UNL1        0.1278
      6 H         137.5790  145.4366  161.7602 H       1  UNL1        0.2105
      7 S         140.1924  142.4720  165.7197 S.O2    1  UNL1        0.0642
      8 O         140.4671  141.3938  164.7138 O.2     1  UNL1       -0.1527
      9 O         139.9177  143.5504  166.7256 O.2     1  UNL1       -0.1527
     10 C         140.7423  141.5976  166.8074 C.ar    1  UNL1        0.1327
     11 C         139.8180  140.7391  167.6187 C.ar    1  UNL1        0.0216
     12 C         140.3679  139.8646  168.7065 C.ar    1  UNL1        0.0128
     13 C         141.8421  139.8488  168.9827 C.ar    1  UNL1        0.0586
     14 CL        142.3920  138.9744  170.0703 Cl      1  UNL1       -0.0822
     15 C         142.7665  140.7074  168.1713 C.ar    1  UNL1        0.0241
     16 C         142.2166  141.5819  167.0836 C.ar    1  UNL1        0.0771
     17 CL        143.1409  142.4405  166.2722 Cl      1  UNL1       -0.0808
     18 C         139.4275  145.6562  162.2094 C.3     1  UNL1        0.2348
     19 O         139.6162  145.3976  160.7439 O.3     1  UNL1       -0.4728
     20 C         142.0119  141.8423  159.3764 C.ar    1  UNL1        0.0960
     21 C         140.5173  141.8332  159.2499 C.ar    1  UNL1        0.0157
     22 C         139.7187  143.0183  159.7057 C.ar    1  UNL1        0.0377
     23 C         140.4147  144.2125  160.2881 C.ar    1  UNL1        0.1410
     24 C         141.9093  144.2217  160.4146 C.ar    1  UNL1        0.0672
     25 C         142.7079  143.0366  159.9588 C.ar    1  UNL1        0.1527
     26 F         144.2026  143.0458  160.0854 F       1  UNL1       -0.2034
     27 N         143.6091  139.4721  158.4647 N.1     1  UNL1       -0.1908
     28 C         142.8105  140.6572  158.9206 C.1     1  UNL1        0.1027
@<TRIPOS>BOND
     1    27    28    3
     2    28    20    1
     3    20    21   ar
     4    21    22   ar
     5    22    23   ar
     6    23    19    1
     7    19    18    1
     8    18     1    1
     9     1     2    1
    10     1     3    1
    11     3     4    1
    12     4     7    1
    13     7     8    2
    14     7     9    2
    15     7    10    1
    16    10    11   ar
    17    11    12   ar
    18    12    13   ar
    19    13    14    1
    20    13    15   ar
    21    15    16   ar
    22    16    17    1
    23     4     5    1
    24    23    24   ar
    25    24    25   ar
    26    25    26    1
    27    25    20   ar
    28     5     1    1
    29    16    10   ar
    30     2     6    1
@<TRIPOS>MOLECULE
*****
 28 30 0 0 0
SMALL
GASTEIGER

@<TRIPOS>ATOM
      1 C         143.6006  143.8433  162.8658 C.3     1  UNL1        0.1610
      2 O         144.1202  145.2034  162.5051 O.3     1  UNL1       -0.3802
      3 C         143.0810  142.4832  163.2265 C.3     1  UNL1        0.1278
      4 N         142.5346  143.0326  164.5109 N.3     1  UNL1       -0.1504
      5 C         143.0542  144.3927  164.1502 C.3     1  UNL1        0.1278
      6 H         144.5653  145.1617  161.6443 H       1  UNL1        0.2105
      7 S         141.7808  142.4593  165.6742 S.O2    1  UNL1        0.0642
      8 O         143.0662  141.9507  166.2564 O.2     1  UNL1       -0.1527
      9 O         140.4953  142.9678  165.0919 O.2     1  UNL1       -0.1527
     10 C         141.0269  141.8860  166.8374 C.ar    1  UNL1        0.1327
     11 C         140.8719  142.6845  168.0976 C.ar    1  UNL1        0.0216
     12 C         140.1180  142.1112  169.2608 C.ar    1  UNL1        0.0128
     13 C         139.5192  140.7394  169.1638 C.ar    1  UNL1        0.0586
     14 CL        138.7654  140.1660  170.3269 Cl      1  UNL1       -0.0822
     15 C         139.6743  139.9408  167.9035 C.ar    1  UNL1        0.0241
     16 C         140.4282  140.5141  166.7403 C.ar    1  UNL1        0.0771
     17 CL        140.5832  139.7156  165.4800 Cl      1  UNL1       -0.0808
     18 C         144.1470  143.2939  161.5814 C.3     1  UNL1        0.2348
     19 O         143.2143  142.7385  160.5463 O.3     1  UNL1       -0.4728
     20 C         140.7602  145.5237  158.0027 C.ar    1  UNL1        0.0960
     21 C         140.3251  145.2074  159.4029 C.ar    1  UNL1        0.0157
     22 C         141.1432  144.2790  160.2508 C.ar    1  UNL1        0.0377
     23 C         142.3963  143.6669  159.6984 C.ar    1  UNL1        0.1410
     24 C         142.8313  143.9833  158.2982 C.ar    1  UNL1        0.0672
     25 C         142.0133  144.9117  157.4504 C.ar    1  UNL1        0.1527
     26 F         142.4484  145.2280  156.0501 F       1  UNL1       -0.2034
     27 N         139.1241  147.3805  156.3070 N.1     1  UNL1       -0.1908
     28 C         139.9421  146.4521  157.1548 C.1     1  UNL1        0.1027
@<TRIPOS>BOND
     1    27    28    3
     2    28    20    1
     3    20    21   ar
     4    21    22   ar
     5    22    23   ar
     6    23    19    1
     7    19    18    1
     8    18     1    1
     9     1     2    1
    10     1     3    1
    11     3     4    1
    12     4     7    1
    13     7     8    2
    14     7     9    2
    15     7    10    1
    16    10    11   ar
    17    11    12   ar
    18    12    13   ar
    19    13    14    1
    20    13    15   ar
    21    15    16   ar
    22    16    17    1
    23     4     5    1
    24    23    24   ar
    25    24    25   ar
    26    25    26    1
    27    25    20   ar
    28     5     1    1
    29    16    10   ar
    30     2     6    1
@<TRIPOS>MOLECULE
*****
 28 30 0 0 0
SMALL
GASTEIGER

@<TRIPOS>ATOM
      1 C         140.4958  144.6744  162.8509 C.3     1  UNL1        0.1610
      2 O         139.9035  145.5019  163.9529 O.3     1  UNL1       -0.3802
      3 C         141.0882  143.8468  161.7490 C.3     1  UNL1        0.1278
      4 N         140.5748  144.8274  160.7366 N.3     1  UNL1       -0.1504
      5 C         139.9825  145.6550  161.8386 C.3     1  UNL1        0.1278
      6 H         140.0888  145.0825  164.8076 H       1  UNL1        0.2105
      7 S         140.6306  144.9356  159.2415 S.O2    1  UNL1        0.0642
      8 O         139.3321  144.1918  159.1393 O.2     1  UNL1       -0.1527
      9 O         141.9293  145.6794  159.3438 O.2     1  UNL1       -0.1527
     10 C         140.6865  145.0438  157.7465 C.ar    1  UNL1        0.1327
     11 C         140.1011  146.2413  157.0588 C.ar    1  UNL1        0.0216
     12 C         140.1570  146.3495  155.5637 C.ar    1  UNL1        0.0128
     13 C         140.7984  145.2602  154.7564 C.ar    1  UNL1        0.0586
     14 CL        140.8543  145.3683  153.2614 Cl      1  UNL1       -0.0822
     15 C         141.3839  144.0625  155.4441 C.ar    1  UNL1        0.0241
     16 C         141.3280  143.9543  156.9392 C.ar    1  UNL1        0.0771
     17 CL        141.9134  142.7568  157.6270 Cl      1  UNL1       -0.0808
     18 C         141.0092  143.6938  163.8633 C.3     1  UNL1        0.2348
     19 O         140.2725  142.4097  164.1044 O.3     1  UNL1       -0.4728
     20 C         139.8800  140.7913  168.2849 C.ar    1  UNL1        0.0960
     21 C         139.5296  139.9270  167.1101 C.ar    1  UNL1        0.0157
     22 C         139.6604  140.4665  165.7166 C.ar    1  UNL1        0.0377
     23 C         140.1417  141.8702  165.4979 C.ar    1  UNL1        0.1410
     24 C         140.4921  142.7345  166.6727 C.ar    1  UNL1        0.0672
     25 C         140.3613  142.1950  168.0662 C.ar    1  UNL1        0.1527
     26 F         140.7118  143.0594  169.2410 F       1  UNL1       -0.2034
     27 N         139.6184  139.7124  171.0719 N.1     1  UNL1       -0.1908
     28 C         139.7492  140.2518  169.6784 C.1     1  UNL1        0.1027
@<TRIPOS>BOND
     1    27    28    3
     2    28    20    1
     3    20    21   ar
     4    21    22   ar
     5    22    23   ar
     6    23    19    1
     7    19    18    1
     8    18     1    1
     9     1     2    1
    10     1     3    1
    11     3     4    1
    12     4     7    1
    13     7     8    2
    14     7     9    2
    15     7    10    1
    16    10    11   ar
    17    11    12   ar
    18    12    13   ar
    19    13    14    1
    20    13    15   ar
    21    15    16   ar
    22    16    17    1
    23     4     5    1
    24    23    24   ar
    25    24    25   ar
    26    25    26    1
    27    25    20   ar
    28     5     1    1
    29    16    10   ar
    30     2     6    1
@<TRIPOS>MOLECULE
*****
 28 30 0 0 0
SMALL
GASTEIGER

@<TRIPOS>ATOM
      1 C         143.3092  138.2100  161.4287 C.3     1  UNL1        0.1610
      2 O         144.7251  138.2703  160.9373 O.3     1  UNL1       -0.3802
      3 C         141.8932  138.1497  161.9201 C.3     1  UNL1        0.1278
      4 N         142.3336  138.6769  163.2536 N.3     1  UNL1       -0.1504
      5 C         143.7495  138.7372  162.7622 C.3     1  UNL1        0.1278
      6 H         144.7619  137.9619  160.0184 H       1  UNL1        0.2105
      7 S         141.6437  139.0070  164.5440 S.O2    1  UNL1        0.0642
      8 O         141.4451  140.4184  164.0767 O.2     1  UNL1       -0.1527
      9 O         141.8422  137.5955  165.0113 O.2     1  UNL1       -0.1527
     10 C         140.9538  139.3370  165.8344 C.ar    1  UNL1        0.1327
     11 C         141.7499  139.8321  167.0052 C.ar    1  UNL1        0.0216
     12 C         141.0600  140.1622  168.2957 C.ar    1  UNL1        0.0128
     13 C         139.5740  139.9971  168.4152 C.ar    1  UNL1        0.0586
     14 CL        138.8840  140.3271  169.7055 Cl      1  UNL1       -0.0822
     15 C         138.7777  139.5020  167.2443 C.ar    1  UNL1        0.0241
     16 C         139.4677  139.1719  165.9539 C.ar    1  UNL1        0.0771
     17 CL        138.6715  138.6768  164.7830 Cl      1  UNL1       -0.0808
     18 C         142.8689  137.6828  160.0952 C.3     1  UNL1        0.2348
     19 O         143.2772  138.3901  158.8371 O.3     1  UNL1       -0.4728
     20 C         142.6148  142.8226  158.4316 C.ar    1  UNL1        0.0960
     21 C         143.9990  142.2571  158.3123 C.ar    1  UNL1        0.0157
     22 C         144.2198  140.7796  158.4474 C.ar    1  UNL1        0.0377
     23 C         143.0564  139.8676  158.7019 C.ar    1  UNL1        0.1410
     24 C         141.6722  140.4331  158.8212 C.ar    1  UNL1        0.0672
     25 C         141.4515  141.9106  158.6860 C.ar    1  UNL1        0.1527
     26 F         140.0672  142.4761  158.8054 F       1  UNL1       -0.2034
     27 N         142.1733  145.7776  158.1612 N.1     1  UNL1       -0.1908
     28 C         142.3941  144.3001  158.2964 C.1     1  UNL1        0.1027
@<TRIPOS>BOND
     1    27    28    3
     2    28    20    1
     3    20    21   ar
     4    21    22   ar
     5    22    23   ar
     6    23    19    1
     7    19    18    1
     8    18     1    1
     9     1     2    1
    10     1     3    1
    11     3     4    1
    12     4     7    1
    13     7     8    2
    14     7     9    2
    15     7    10    1
    16    10    11   ar
    17    11    12   ar
    18    12    13   ar
    19    13    14    1
    20    13    15   ar
    21    15    16   ar
    22    16    17    1
    23     4     5    1
    24    23    24   ar
    25    24    25   ar
    26    25    26    1
    27    25    20   ar
    28     5     1    1
    29    16    10   ar
    30     2     6    1
@<TRIPOS>MOLECULE
*****
 28 30 0 0 0
SMALL
GASTEIGER

@<TRIPOS>ATOM
      1 C         142.6943  138.0632  162.5727 C.3     1  UNL1        0.1610
      2 O         142.0589  137.1154  161.5991 O.3     1  UNL1       -0.3802
      3 C         143.3297  139.0109  163.5463 C.3     1  UNL1        0.1278
      4 N         142.0559  139.0524  164.3373 N.3     1  UNL1       -0.1504
      5 C         141.4205  138.1046  163.3637 C.3     1  UNL1        0.1278
      6 H         142.6985  136.8858  160.9070 H       1  UNL1        0.2105
      7 S         141.6045  139.7520  165.5851 S.O2    1  UNL1        0.0642
      8 O         140.7685  140.6846  164.7598 O.2     1  UNL1       -0.1527
      9 O         142.4406  138.8193  166.4105 O.2     1  UNL1       -0.1527
     10 C         141.1532  140.4514  166.8329 C.ar    1  UNL1        0.1327
     11 C         139.9779  139.9271  167.6033 C.ar    1  UNL1        0.0216
     12 C         139.5266  140.6266  168.8512 C.ar    1  UNL1        0.0128
     13 C         140.2506  141.8505  169.3285 C.ar    1  UNL1        0.0586
     14 CL        139.7993  142.5500  170.5763 Cl      1  UNL1       -0.0822
     15 C         141.4259  142.3749  168.5580 C.ar    1  UNL1        0.0241
     16 C         141.8772  141.6754  167.3102 C.ar    1  UNL1        0.0771
     17 CL        143.0526  142.1997  166.5397 Cl      1  UNL1       -0.0808
     18 C         143.9681  138.0217  161.7817 C.3     1  UNL1        0.2348
     19 O         143.9908  138.5266  160.3694 O.3     1  UNL1       -0.4728
     20 C         142.6490  142.7243  159.4589 C.ar    1  UNL1        0.0960
     21 C         142.0820  141.5711  158.6851 C.ar    1  UNL1        0.0157
     22 C         142.5292  140.1719  158.9886 C.ar    1  UNL1        0.0377
     23 C         143.5435  139.9258  160.0659 C.ar    1  UNL1        0.1410
     24 C         144.1106  141.0789  160.8397 C.ar    1  UNL1        0.0672
     25 C         143.6633  142.4781  160.5361 C.ar    1  UNL1        0.1527
     26 F         144.2304  143.6313  161.3100 F       1  UNL1       -0.2034
     27 N         141.7545  145.5227  158.8518 N.1     1  UNL1       -0.1908
     28 C         142.2018  144.1235  159.1553 C.1     1  UNL1        0.1027
@<TRIPOS>BOND
     1    27    28    3
     2    28    20    1
     3    20    21   ar
     4    21    22   ar
     5    22    23   ar
     6    23    19    1
     7    19    18    1
     8    18     1    1
     9     1     2    1
    10     1     3    1
    11     3     4    1
    12     4     7    1
    13     7     8    2
    14     7     9    2
    15     7    10    1
    16    10    11   ar
    17    11    12   ar
    18    12    13   ar
    19    13    14    1
    20    13    15   ar
    21    15    16   ar
    22    16    17    1
    23     4     5    1
    24    23    24   ar
    25    24    25   ar
    26    25    26    1
    27    25    20   ar
    28     5     1    1
    29    16    10   ar
    30     2     6    1
@<TRIPOS>MOLECULE
*****
 28 30 0 0 0
SMALL
GASTEIGER

@<TRIPOS>ATOM
      1 C         143.9407  140.6099  163.2214 C.3     1  UNL1        0.1610
      2 O         145.2183  139.8538  163.4354 O.3     1  UNL1       -0.3802
      3 C         142.6630  141.3661  163.0074 C.3     1  UNL1        0.1278
      4 N         143.1964  141.9005  161.7113 N.3     1  UNL1       -0.1504
      5 C         144.4740  141.1443  161.9253 C.3     1  UNL1        0.1278
      6 H         145.1685  139.3650  164.2718 H       1  UNL1        0.2105
      7 S         142.6701  142.8131  160.6434 S.O2    1  UNL1        0.0642
      8 O         143.3783  143.9702  161.2833 O.2     1  UNL1       -0.1527
      9 O         141.9618  141.6559  160.0035 O.2     1  UNL1       -0.1527
     10 C         142.1437  143.7256  159.5756 C.ar    1  UNL1        0.1327
     11 C         142.8661  143.8429  158.2663 C.ar    1  UNL1        0.0216
     12 C         142.3397  144.7555  157.1984 C.ar    1  UNL1        0.0128
     13 C         141.0910  145.5506  157.4399 C.ar    1  UNL1        0.0586
     14 CL        140.5645  146.4631  156.3722 Cl      1  UNL1       -0.0822
     15 C         140.3685  145.4332  158.7493 C.ar    1  UNL1        0.0241
     16 C         140.8949  144.5207  159.8171 C.ar    1  UNL1        0.0771
     17 CL        140.1725  144.4033  161.1265 Cl      1  UNL1       -0.0808
     18 C         143.4073  140.0756  164.5176 C.3     1  UNL1        0.2348
     19 O         142.0029  140.3925  164.9383 O.3     1  UNL1       -0.4728
     20 C         141.1153  141.4097  169.2310 C.ar    1  UNL1        0.0960
     21 C         140.9136  142.4394  168.1591 C.ar    1  UNL1        0.0157
     22 C         141.2094  142.1003  166.7282 C.ar    1  UNL1        0.0377
     23 C         141.7070  140.7316  166.3692 C.ar    1  UNL1        0.1410
     24 C         141.9087  139.7019  167.4411 C.ar    1  UNL1        0.0672
     25 C         141.6128  140.0409  168.8720 C.ar    1  UNL1        0.1527
     26 F         141.8145  139.0111  169.9439 F       1  UNL1       -0.2034
     27 N         140.5235  142.0878  172.0928 N.1     1  UNL1       -0.1908
     28 C         140.8194  141.7487  170.6619 C.1     1  UNL1        0.1027
@<TRIPOS>BOND
     1    27    28    3
     2    28    20    1
     3    20    21   ar
     4    21    22   ar
     5    22    23   ar
     6    23    19    1
     7    19    18    1
     8    18     1    1
     9     1     2    1
    10     1     3    1
    11     3     4    1
    12     4     7    1
    13     7     8    2
    14     7     9    2
    15     7    10    1
    16    10    11   ar
    17    11    12   ar
    18    12    13   ar
    19    13    14    1
    20    13    15   ar
    21    15    16   ar
    22    16    17    1
    23     4     5    1
    24    23    24   ar
    25    24    25   ar
    26    25    26    1
    27    25    20   ar
    28     5     1    1
    29    16    10   ar
    30     2     6    1
@<TRIPOS>MOLECULE
*****
 28 30 0 0 0
SMALL
GASTEIGER

@<TRIPOS>ATOM
      1 C         141.7321  139.2734  158.0928 C.3     1  UNL1        0.1610
      2 O         141.7137  140.2720  156.9737 O.3     1  UNL1       -0.3802
      3 C         141.7505  138.2748  159.2120 C.3     1  UNL1        0.1278
      4 N         140.8837  139.1812  160.0350 N.3     1  UNL1       -0.1504
      5 C         140.8653  140.1798  158.9158 C.3     1  UNL1        0.1278
      6 H         142.2381  139.9346  156.2307 H       1  UNL1        0.2105
      7 S         140.2839  139.1160  161.4083 S.O2    1  UNL1        0.0642
      8 O         139.1823  138.2423  160.8856 O.2     1  UNL1       -0.1527
      9 O         141.3855  139.9897  161.9310 O.2     1  UNL1       -0.1527
     10 C         139.6840  139.0508  162.7816 C.ar    1  UNL1        0.1327
     11 C         138.6680  140.0695  163.2054 C.ar    1  UNL1        0.0216
     12 C         138.0682  140.0043  164.5788 C.ar    1  UNL1        0.0128
     13 C         138.4845  138.9204  165.5282 C.ar    1  UNL1        0.0586
     14 CL        137.8848  138.8551  166.9016 Cl      1  UNL1       -0.0822
     15 C         139.5007  137.9016  165.1045 C.ar    1  UNL1        0.0241
     16 C         140.1005  137.9668  163.7311 C.ar    1  UNL1        0.0771
     17 CL        141.1166  136.9480  163.3073 Cl      1  UNL1       -0.0808
     18 C         142.5988  138.3670  157.2699 C.3     1  UNL1        0.2348
     19 O         141.9794  137.4655  156.2435 O.3     1  UNL1       -0.4728
     20 C         142.6486  133.0206  156.4557 C.ar    1  UNL1        0.0960
     21 C         141.6428  133.5826  155.4953 C.ar    1  UNL1        0.0157
     22 C         141.4197  135.0643  155.4246 C.ar    1  UNL1        0.0377
     23 C         142.2025  135.9839  156.3142 C.ar    1  UNL1        0.1410
     24 C         143.2083  135.4218  157.2746 C.ar    1  UNL1        0.0672
     25 C         143.4314  133.9402  157.3453 C.ar    1  UNL1        0.1527
     26 F         144.4372  133.3782  158.3058 F       1  UNL1       -0.2034
     27 N         143.0947  130.0573  156.5971 N.1     1  UNL1       -0.1908
     28 C         142.8716  131.5390  156.5264 C.1     1  UNL1        0.1027
@<TRIPOS>BOND
     1    27    28    3
     2    28    20    1
     3    20    21   ar
     4    21    22   ar
     5    22    23   ar
     6    23    19    1
     7    19    18    1
     8    18     1    1
     9     1     2    1
    10     1     3    1
    11     3     4    1
    12     4     7    1
    13     7     8    2
    14     7     9    2
    15     7    10    1
    16    10    11   ar
    17    11    12   ar
    18    12    13   ar
    19    13    14    1
    20    13    15   ar
    21    15    16   ar
    22    16    17    1
    23     4     5    1
    24    23    24   ar
    25    24    25   ar
    26    25    26    1
    27    25    20   ar
    28     5     1    1
    29    16    10   ar
    30     2     6    1
