@<TRIPOS>MOLECULE
*****
 29 31 0 0 0
SMALL
GASTEIGER

@<TRIPOS>ATOM
      1 C         143.5164  143.3869  162.0278 C.ar    1  UNL1        0.2331
      2 C         144.1181  144.3083  163.0471 C.ar    1  UNL1        0.0673
      3 C         143.2401  145.2462  163.8213 C.ar    1  UNL1        0.0116
      4 C         141.7604  145.2628  163.5763 C.ar    1  UNL1        0.0673
      5 C         141.1586  144.3413  162.5570 C.ar    1  UNL1        0.2331
      6 N         142.0366  143.4034  161.7828 N.ar    1  UNL1       -0.1663
      7 C         141.4348  142.4820  160.7636 C.3     1  UNL1        0.4077
      8 C         144.3944  142.4490  161.2536 C.3     1  UNL1        0.2389
      9 O         145.0102  141.2632  161.9353 O.3     1  UNL1       -0.3430
     10 C         144.2566  140.5435  163.0143 C.3     1  UNL1        0.1475
     11 C         144.5418  140.8433  164.4561 C.3     1  UNL1        0.0584
     12 C         140.0566  140.9620  168.4396 C.3     1  UNL1        0.0310
     13 C         141.1779  140.9324  167.4437 C.ar    1  UNL1       -0.0219
     14 C         141.4946  142.1548  166.6342 C.ar    1  UNL1       -0.0046
     15 C         142.6159  142.1251  165.6383 C.ar    1  UNL1       -0.0045
     16 C         143.4205  140.8730  165.4520 C.ar    1  UNL1       -0.0197
     17 C         143.1038  139.6506  166.2615 C.ar    1  UNL1       -0.0045
     18 C         141.9825  139.6803  167.2573 C.ar    1  UNL1       -0.0046
     19 C         139.6788  144.3578  162.3121 C.3     1  UNL1        0.2389
     20 O         138.7302  144.5282  163.4614 O.3     1  UNL1       -0.3430
     21 C         138.7514  143.5543  164.6021 C.3     1  UNL1        0.1475
     22 C         137.9754  142.2740  164.5096 C.3     1  UNL1        0.0584
     23 C         138.6971  140.9590  164.4949 C.ar    1  UNL1       -0.0197
     24 C         139.8605  140.7523  163.5710 C.ar    1  UNL1       -0.0045
     25 C         140.5822  139.4374  163.5562 C.ar    1  UNL1       -0.0046
     26 C         140.1405  138.3292  164.4655 C.ar    1  UNL1       -0.0219
     27 C         140.8621  137.0143  164.4508 C.3     1  UNL1        0.0310
     28 C         138.9770  138.5359  165.3895 C.ar    1  UNL1       -0.0046
     29 C         138.2554  139.8509  165.4042 C.ar    1  UNL1       -0.0045
@<TRIPOS>UNITY_ATOM_ATTR
6 1
charge 1
@<TRIPOS>BOND
     1    12    13    1
     2    13    14   ar
     3    14    15   ar
     4    15    16   ar
     5    16    11    1
     6    11    10    1
     7    10     9    1
     8     9     8    1
     9     8     1    1
    10     1     2   ar
    11     2     3   ar
    12     3     4   ar
    13     4     5   ar
    14     5    19    1
    15    19    20    1
    16    20    21    1
    17    21    22    1
    18    22    23    1
    19    23    24   ar
    20    24    25   ar
    21    25    26   ar
    22    26    27    1
    23    26    28   ar
    24    28    29   ar
    25     5     6   ar
    26     6     7    1
    27    16    17   ar
    28    17    18   ar
    29    18    13   ar
    30     6     1   ar
    31    29    23   ar
@<TRIPOS>MOLECULE
*****
 29 31 0 0 0
SMALL
GASTEIGER

@<TRIPOS>ATOM
      1 C         141.5356  144.5853  162.0391 C.ar    1  UNL1        0.2331
      2 C         141.7798  145.3966  163.2769 C.ar    1  UNL1        0.0673
      3 C         143.0313  145.1863  164.0766 C.ar    1  UNL1        0.0116
      4 C         144.0386  144.1648  163.6386 C.ar    1  UNL1        0.0673
      5 C         143.7944  143.3535  162.4007 C.ar    1  UNL1        0.2331
      6 N         142.5429  143.5638  161.6009 N.ar    1  UNL1       -0.1663
      7 C         142.2987  142.7525  160.3631 C.3     1  UNL1        0.4077
      8 C         140.2841  144.7956  161.2393 C.3     1  UNL1        0.2389
      9 O         139.0789  145.4160  161.8817 O.3     1  UNL1       -0.3430
     10 C         138.2392  144.6144  162.8316 C.3     1  UNL1        0.1475
     11 C         138.2579  143.1159  162.7679 C.3     1  UNL1        0.0584
     12 C         139.9416  139.9302  167.5655 C.3     1  UNL1        0.0310
     13 C         139.5207  140.7266  166.3661 C.ar    1  UNL1       -0.0219
     14 C         138.3296  140.2979  165.5615 C.ar    1  UNL1       -0.0046
     15 C         137.9087  141.0943  164.3621 C.ar    1  UNL1       -0.0045
     16 C         138.6788  142.3194  163.9673 C.ar    1  UNL1       -0.0197
     17 C         139.8699  142.7481  164.7720 C.ar    1  UNL1       -0.0045
     18 C         140.2908  141.9517  165.9714 C.ar    1  UNL1       -0.0046
     19 C         144.8016  142.3320  161.9626 C.3     1  UNL1        0.2389
     20 O         145.6936  141.6763  162.9747 O.3     1  UNL1       -0.3430
     21 C         145.2574  140.4103  163.6506 C.3     1  UNL1        0.1475
     22 C         144.0961  140.4286  164.5998 C.3     1  UNL1        0.0584
     23 C         142.8288  139.7069  164.2486 C.ar    1  UNL1       -0.0197
     24 C         141.9858  140.1855  163.1039 C.ar    1  UNL1       -0.0045
     25 C         140.7186  139.4638  162.7526 C.ar    1  UNL1       -0.0046
     26 C         140.2944  138.2636  163.5461 C.ar    1  UNL1       -0.0219
     27 C         139.0272  137.5419  163.1948 C.3     1  UNL1        0.0310
     28 C         141.1374  137.7850  164.6908 C.ar    1  UNL1       -0.0046
     29 C         142.4046  138.5067  165.0420 C.ar    1  UNL1       -0.0045
@<TRIPOS>UNITY_ATOM_ATTR
6 1
charge 1
@<TRIPOS>BOND
     1    12    13    1
     2    13    14   ar
     3    14    15   ar
     4    15    16   ar
     5    16    11    1
     6    11    10    1
     7    10     9    1
     8     9     8    1
     9     8     1    1
    10     1     2   ar
    11     2     3   ar
    12     3     4   ar
    13     4     5   ar
    14     5    19    1
    15    19    20    1
    16    20    21    1
    17    21    22    1
    18    22    23    1
    19    23    24   ar
    20    24    25   ar
    21    25    26   ar
    22    26    27    1
    23    26    28   ar
    24    28    29   ar
    25     5     6   ar
    26     6     7    1
    27    16    17   ar
    28    17    18   ar
    29    18    13   ar
    30     6     1   ar
    31    29    23   ar
@<TRIPOS>MOLECULE
*****
 29 31 0 0 0
SMALL
GASTEIGER

@<TRIPOS>ATOM
      1 C         141.2649  145.0141  162.2985 C.ar    1  UNL1        0.2331
      2 C         141.8188  145.4802  163.6123 C.ar    1  UNL1        0.0673
      3 C         143.1935  145.0581  164.0388 C.ar    1  UNL1        0.0116
      4 C         144.0145  144.1700  163.1515 C.ar    1  UNL1        0.0673
      5 C         143.4607  143.7039  161.8377 C.ar    1  UNL1        0.2331
      6 N         142.0859  144.1259  161.4112 N.ar    1  UNL1       -0.1663
      7 C         141.5321  143.6598  160.0974 C.3     1  UNL1        0.4077
      8 C         139.8902  145.4361  161.8720 C.3     1  UNL1        0.2389
      9 O         138.6844  144.7482  162.4402 O.3     1  UNL1       -0.3430
     10 C         138.6871  143.2594  162.6235 C.3     1  UNL1        0.1475
     11 C         138.9616  142.6707  163.9755 C.3     1  UNL1        0.0584
     12 C         140.9856  137.0416  164.4416 C.3     1  UNL1        0.0310
     13 C         140.4796  138.4489  164.3251 C.ar    1  UNL1       -0.0219
     14 C         139.4994  138.9790  165.3291 C.ar    1  UNL1       -0.0046
     15 C         138.9934  140.3863  165.2126 C.ar    1  UNL1       -0.0045
     16 C         139.4676  141.2634  164.0920 C.ar    1  UNL1       -0.0197
     17 C         140.4479  140.7333  163.0880 C.ar    1  UNL1       -0.0045
     18 C         140.9539  139.3260  163.2045 C.ar    1  UNL1       -0.0046
     19 C         144.2816  142.8158  160.9504 C.3     1  UNL1        0.2389
     20 O         145.0805  141.6938  161.5447 O.3     1  UNL1       -0.3430
     21 C         144.3946  140.6268  162.3453 C.3     1  UNL1        0.1475
     22 C         144.9720  140.1862  163.6578 C.3     1  UNL1        0.0584
     23 C         144.0977  140.1116  164.8745 C.ar    1  UNL1       -0.0197
     24 C         144.0066  138.8341  165.6553 C.ar    1  UNL1       -0.0045
     25 C         143.1325  138.7594  166.8719 C.ar    1  UNL1       -0.0046
     26 C         142.3494  139.9623  167.3078 C.ar    1  UNL1       -0.0219
     27 C         141.4752  139.8877  168.5244 C.3     1  UNL1        0.0310
     28 C         142.4405  141.2398  166.5269 C.ar    1  UNL1       -0.0046
     29 C         143.3147  141.3144  165.3103 C.ar    1  UNL1       -0.0045
@<TRIPOS>UNITY_ATOM_ATTR
6 1
charge 1
@<TRIPOS>BOND
     1    12    13    1
     2    13    14   ar
     3    14    15   ar
     4    15    16   ar
     5    16    11    1
     6    11    10    1
     7    10     9    1
     8     9     8    1
     9     8     1    1
    10     1     2   ar
    11     2     3   ar
    12     3     4   ar
    13     4     5   ar
    14     5    19    1
    15    19    20    1
    16    20    21    1
    17    21    22    1
    18    22    23    1
    19    23    24   ar
    20    24    25   ar
    21    25    26   ar
    22    26    27    1
    23    26    28   ar
    24    28    29   ar
    25     5     6   ar
    26     6     7    1
    27    16    17   ar
    28    17    18   ar
    29    18    13   ar
    30     6     1   ar
    31    29    23   ar
@<TRIPOS>MOLECULE
*****
 29 31 0 0 0
SMALL
GASTEIGER

@<TRIPOS>ATOM
      1 C         138.3171  142.0957  162.4035 C.ar    1  UNL1        0.2331
      2 C         137.4786  142.6068  163.5373 C.ar    1  UNL1        0.0673
      3 C         137.7702  143.9492  164.1399 C.ar    1  UNL1        0.0116
      4 C         138.9002  144.7803  163.6088 C.ar    1  UNL1        0.0673
      5 C         139.7388  144.2691  162.4749 C.ar    1  UNL1        0.2331
      6 N         139.4472  142.9268  161.8722 N.ar    1  UNL1       -0.1663
      7 C         140.2857  142.4157  160.7384 C.3     1  UNL1        0.4077
      8 C         138.0256  140.7534  161.8008 C.3     1  UNL1        0.2389
      9 O         137.7034  139.5871  162.6875 O.3     1  UNL1       -0.3430
     10 C         138.5449  138.3467  162.6305 C.3     1  UNL1        0.1475
     11 C         139.3819  137.9532  163.8113 C.3     1  UNL1        0.0584
     12 C         145.0471  139.8805  164.2486 C.3     1  UNL1        0.0310
     13 C         143.6308  139.3987  164.1393 C.ar    1  UNL1       -0.0219
     14 C         143.0384  138.5577  165.2308 C.ar    1  UNL1       -0.0046
     15 C         141.6221  138.0758  165.1215 C.ar    1  UNL1       -0.0045
     16 C         140.7982  138.4350  163.9206 C.ar    1  UNL1       -0.0197
     17 C         141.3907  139.2761  162.8291 C.ar    1  UNL1       -0.0045
     18 C         142.8070  139.7579  162.9384 C.ar    1  UNL1       -0.0046
     19 C         140.8688  145.1003  161.9437 C.3     1  UNL1        0.2389
     20 O         142.2641  144.8788  162.4477 O.3     1  UNL1       -0.3430
     21 C         142.5056  144.6488  163.9101 C.3     1  UNL1        0.1475
     22 C         143.0610  143.3375  164.3814 C.3     1  UNL1        0.0584
     23 C         142.3152  142.5309  165.4028 C.ar    1  UNL1       -0.0197
     24 C         140.8887  142.1398  165.1539 C.ar    1  UNL1       -0.0045
     25 C         140.1429  141.3332  166.1752 C.ar    1  UNL1       -0.0046
     26 C         140.8237  140.9176  167.4456 C.ar    1  UNL1       -0.0219
     27 C         140.0780  140.1110  168.4670 C.3     1  UNL1        0.0310
     28 C         142.2503  141.3087  167.6946 C.ar    1  UNL1       -0.0046
     29 C         142.9960  142.1153  166.6732 C.ar    1  UNL1       -0.0045
@<TRIPOS>UNITY_ATOM_ATTR
6 1
charge 1
@<TRIPOS>BOND
     1    12    13    1
     2    13    14   ar
     3    14    15   ar
     4    15    16   ar
     5    16    11    1
     6    11    10    1
     7    10     9    1
     8     9     8    1
     9     8     1    1
    10     1     2   ar
    11     2     3   ar
    12     3     4   ar
    13     4     5   ar
    14     5    19    1
    15    19    20    1
    16    20    21    1
    17    21    22    1
    18    22    23    1
    19    23    24   ar
    20    24    25   ar
    21    25    26   ar
    22    26    27    1
    23    26    28   ar
    24    28    29   ar
    25     5     6   ar
    26     6     7    1
    27    16    17   ar
    28    17    18   ar
    29    18    13   ar
    30     6     1   ar
    31    29    23   ar
@<TRIPOS>MOLECULE
*****
 29 31 0 0 0
SMALL
GASTEIGER

@<TRIPOS>ATOM
      1 C         138.5131  141.2512  163.1124 C.ar    1  UNL1        0.2331
      2 C         137.4592  142.2034  163.5945 C.ar    1  UNL1        0.0673
      3 C         137.7505  143.6733  163.6616 C.ar    1  UNL1        0.0116
      4 C         139.0958  144.1910  163.2468 C.ar    1  UNL1        0.0673
      5 C         140.1499  143.2387  162.7647 C.ar    1  UNL1        0.2331
      6 N         139.8585  141.7688  162.6976 N.ar    1  UNL1       -0.1663
      7 C         140.9125  140.8166  162.2155 C.3     1  UNL1        0.4077
      8 C         138.2218  139.7813  163.0453 C.3     1  UNL1        0.2389
      9 O         138.5694  138.8941  164.2038 O.3     1  UNL1       -0.3430
     10 C         138.1007  139.2455  165.5846 C.3     1  UNL1        0.1475
     11 C         139.0466  139.1499  166.7448 C.3     1  UNL1        0.0584
     12 C         140.4123  144.0579  169.9144 C.3     1  UNL1        0.0310
     13 C         140.0708  142.8309  169.1220 C.ar    1  UNL1       -0.0219
     14 C         140.1233  142.8673  167.6234 C.ar    1  UNL1       -0.0046
     15 C         139.7819  141.6403  166.8310 C.ar    1  UNL1       -0.0045
     16 C         139.3880  140.3769  167.5372 C.ar    1  UNL1       -0.0197
     17 C         139.3356  140.3406  169.0358 C.ar    1  UNL1       -0.0045
     18 C         139.6770  141.5676  169.8282 C.ar    1  UNL1       -0.0046
     19 C         141.4952  143.7564  162.3499 C.3     1  UNL1        0.2389
     20 O         142.5703  143.9582  163.3762 O.3     1  UNL1       -0.3430
     21 C         142.4405  143.3294  164.7319 C.3     1  UNL1        0.1475
     22 C         143.5595  142.4958  165.2823 C.3     1  UNL1        0.0584
     23 C         143.3152  141.5923  166.4545 C.ar    1  UNL1       -0.0197
     24 C         142.9959  140.1438  166.2311 C.ar    1  UNL1       -0.0045
     25 C         142.7516  139.2402  167.4032 C.ar    1  UNL1       -0.0046
     26 C         142.8265  139.7851  168.7987 C.ar    1  UNL1       -0.0219
     27 C         142.5822  138.8816  169.9708 C.3     1  UNL1        0.0310
     28 C         143.1458  141.2337  169.0221 C.ar    1  UNL1       -0.0046
     29 C         143.3901  142.1372  167.8499 C.ar    1  UNL1       -0.0045
@<TRIPOS>UNITY_ATOM_ATTR
6 1
charge 1
@<TRIPOS>BOND
     1    12    13    1
     2    13    14   ar
     3    14    15   ar
     4    15    16   ar
     5    16    11    1
     6    11    10    1
     7    10     9    1
     8     9     8    1
     9     8     1    1
    10     1     2   ar
    11     2     3   ar
    12     3     4   ar
    13     4     5   ar
    14     5    19    1
    15    19    20    1
    16    20    21    1
    17    21    22    1
    18    22    23    1
    19    23    24   ar
    20    24    25   ar
    21    25    26   ar
    22    26    27    1
    23    26    28   ar
    24    28    29   ar
    25     5     6   ar
    26     6     7    1
    27    16    17   ar
    28    17    18   ar
    29    18    13   ar
    30     6     1   ar
    31    29    23   ar
@<TRIPOS>MOLECULE
*****
 29 31 0 0 0
SMALL
GASTEIGER

@<TRIPOS>ATOM
      1 C         144.2250  139.7488  164.1136 C.ar    1  UNL1        0.2331
      2 C         143.7159  139.3182  165.4573 C.ar    1  UNL1        0.0673
      3 C         142.5142  138.4257  165.5532 C.ar    1  UNL1        0.0116
      4 C         141.8215  137.9637  164.3055 C.ar    1  UNL1        0.0673
      5 C         142.3306  138.3943  162.9618 C.ar    1  UNL1        0.2331
      6 N         143.5323  139.2868  162.8659 N.ar    1  UNL1       -0.1663
      7 C         144.0413  139.7174  161.5222 C.3     1  UNL1        0.4077
      8 C         145.4267  140.6413  164.0177 C.3     1  UNL1        0.2389
      9 O         145.2514  142.1287  163.9333 O.3     1  UNL1       -0.3430
     10 C         144.6464  142.8790  165.0826 C.3     1  UNL1        0.1475
     11 C         143.1558  143.0013  165.1970 C.3     1  UNL1        0.0584
     12 C         139.9074  144.6587  160.4325 C.3     1  UNL1        0.0310
     13 C         140.7195  144.2444  161.6236 C.ar    1  UNL1       -0.0219
     14 C         141.1718  145.2728  162.6174 C.ar    1  UNL1       -0.0046
     15 C         141.9839  144.8584  163.8086 C.ar    1  UNL1       -0.0045
     16 C         142.3437  143.4157  164.0059 C.ar    1  UNL1       -0.0197
     17 C         141.8913  142.3873  163.0120 C.ar    1  UNL1       -0.0045
     18 C         141.0792  142.8016  161.8209 C.ar    1  UNL1       -0.0046
     19 C         141.6379  137.9323  161.7141 C.3     1  UNL1        0.2389
     20 O         140.1747  137.6036  161.7465 O.3     1  UNL1       -0.3430
     21 C         139.1576  138.6908  161.5638 C.3     1  UNL1        0.1475
     22 C         138.2351  139.0518  162.6902 C.3     1  UNL1        0.0584
     23 C         138.2856  140.4258  163.2900 C.ar    1  UNL1       -0.0197
     24 C         139.0327  140.6586  164.5697 C.ar    1  UNL1       -0.0045
     25 C         139.0832  142.0325  165.1694 C.ar    1  UNL1       -0.0046
     26 C         138.3865  143.1738  164.4895 C.ar    1  UNL1       -0.0219
     27 C         138.4370  144.5477  165.0892 C.3     1  UNL1        0.0310
     28 C         137.6394  142.9410  163.2097 C.ar    1  UNL1       -0.0046
     29 C         137.5890  141.5670  162.6100 C.ar    1  UNL1       -0.0045
@<TRIPOS>UNITY_ATOM_ATTR
6 1
charge 1
@<TRIPOS>BOND
     1    12    13    1
     2    13    14   ar
     3    14    15   ar
     4    15    16   ar
     5    16    11    1
     6    11    10    1
     7    10     9    1
     8     9     8    1
     9     8     1    1
    10     1     2   ar
    11     2     3   ar
    12     3     4   ar
    13     4     5   ar
    14     5    19    1
    15    19    20    1
    16    20    21    1
    17    21    22    1
    18    22    23    1
    19    23    24   ar
    20    24    25   ar
    21    25    26   ar
    22    26    27    1
    23    26    28   ar
    24    28    29   ar
    25     5     6   ar
    26     6     7    1
    27    16    17   ar
    28    17    18   ar
    29    18    13   ar
    30     6     1   ar
    31    29    23   ar
@<TRIPOS>MOLECULE
*****
 29 31 0 0 0
SMALL
GASTEIGER

@<TRIPOS>ATOM
      1 C         143.4979  143.5953  161.7360 C.ar    1  UNL1        0.2331
      2 C         144.3149  144.0990  162.8887 C.ar    1  UNL1        0.0673
      3 C         143.6925  145.0040  163.9103 C.ar    1  UNL1        0.0116
      4 C         142.2531  145.4052  163.7792 C.ar    1  UNL1        0.0673
      5 C         141.4361  144.9014  162.6265 C.ar    1  UNL1        0.2331
      6 N         142.0584  143.9965  161.6049 N.ar    1  UNL1       -0.1663
      7 C         141.2415  143.4927  160.4522 C.3     1  UNL1        0.4077
      8 C         144.1203  142.6903  160.7144 C.3     1  UNL1        0.2389
      9 O         143.8069  141.2233  160.7218 O.3     1  UNL1       -0.3430
     10 C         144.3965  140.3358  161.7776 C.3     1  UNL1        0.1475
     11 C         143.9262  140.4451  163.1977 C.3     1  UNL1        0.0584
     12 C         138.9546  137.5737  164.9408 C.3     1  UNL1        0.0310
     13 C         140.1975  138.2915  164.5050 C.ar    1  UNL1       -0.0219
     14 C         141.5442  137.7821  164.9254 C.ar    1  UNL1       -0.0046
     15 C         142.7871  138.5000  164.4896 C.ar    1  UNL1       -0.0045
     16 C         142.6833  139.7272  163.6335 C.ar    1  UNL1       -0.0197
     17 C         141.3365  140.2366  163.2131 C.ar    1  UNL1       -0.0045
     18 C         140.0936  139.5187  163.6488 C.ar    1  UNL1       -0.0046
     19 C         139.9967  145.3027  162.4954 C.3     1  UNL1        0.2389
     20 O         138.9143  144.3776  162.9673 O.3     1  UNL1       -0.3430
     21 C         139.2519  143.2242  163.8648 C.3     1  UNL1        0.1475
     22 C         139.6536  143.4742  165.2883 C.3     1  UNL1        0.0584
     23 C         140.4295  142.4350  166.0421 C.ar    1  UNL1       -0.0197
     24 C         141.9267  142.5087  166.0951 C.ar    1  UNL1       -0.0045
     25 C         142.7026  141.4696  166.8489 C.ar    1  UNL1       -0.0046
     26 C         141.9812  140.3567  167.5498 C.ar    1  UNL1       -0.0219
     27 C         142.7570  139.3175  168.3036 C.3     1  UNL1        0.0310
     28 C         140.4839  140.2829  167.4968 C.ar    1  UNL1       -0.0046
     29 C         139.7081  141.3221  166.7429 C.ar    1  UNL1       -0.0045
@<TRIPOS>UNITY_ATOM_ATTR
6 1
charge 1
@<TRIPOS>BOND
     1    12    13    1
     2    13    14   ar
     3    14    15   ar
     4    15    16   ar
     5    16    11    1
     6    11    10    1
     7    10     9    1
     8     9     8    1
     9     8     1    1
    10     1     2   ar
    11     2     3   ar
    12     3     4   ar
    13     4     5   ar
    14     5    19    1
    15    19    20    1
    16    20    21    1
    17    21    22    1
    18    22    23    1
    19    23    24   ar
    20    24    25   ar
    21    25    26   ar
    22    26    27    1
    23    26    28   ar
    24    28    29   ar
    25     5     6   ar
    26     6     7    1
    27    16    17   ar
    28    17    18   ar
    29    18    13   ar
    30     6     1   ar
    31    29    23   ar
@<TRIPOS>MOLECULE
*****
 29 31 0 0 0
SMALL
GASTEIGER

@<TRIPOS>ATOM
      1 C         139.2344  143.4081  162.1515 C.ar    1  UNL1        0.2331
      2 C         138.9739  144.5069  163.1387 C.ar    1  UNL1        0.0673
      3 C         140.1156  145.3162  163.6787 C.ar    1  UNL1        0.0116
      4 C         141.5177  145.0267  163.2315 C.ar    1  UNL1        0.0673
      5 C         141.7783  143.9279  162.2441 C.ar    1  UNL1        0.2331
      6 N         140.6366  143.1186  161.7041 N.ar    1  UNL1       -0.1663
      7 C         140.8970  142.0198  160.7168 C.3     1  UNL1        0.4077
      8 C         138.0927  142.5988  161.6115 C.3     1  UNL1        0.2389
      9 O         137.4231  141.5745  162.4789 O.3     1  UNL1       -0.3430
     10 C         138.2143  140.4251  163.0293 C.3     1  UNL1        0.1475
     11 C         138.1227  140.0809  164.4863 C.3     1  UNL1        0.0584
     12 C         142.3726  141.9543  168.2848 C.3     1  UNL1        0.0310
     13 C         141.3101  141.4859  167.3352 C.ar    1  UNL1       -0.0219
     14 C         141.1099  142.1913  166.0266 C.ar    1  UNL1       -0.0046
     15 C         140.0474  141.7230  165.0770 C.ar    1  UNL1       -0.0045
     16 C         139.1852  140.5492  165.4360 C.ar    1  UNL1       -0.0197
     17 C         139.3854  139.8439  166.7445 C.ar    1  UNL1       -0.0045
     18 C         140.4479  140.3122  167.6941 C.ar    1  UNL1       -0.0046
     19 C         143.1804  143.6384  161.7968 C.3     1  UNL1        0.2389
     20 O         144.3141  143.7323  162.7746 O.3     1  UNL1       -0.3430
     21 C         144.2436  142.9931  164.0779 C.3     1  UNL1        0.1475
     22 C         144.7552  141.5862  164.1708 C.3     1  UNL1        0.0584
     23 C         143.7900  140.4415  164.2611 C.ar    1  UNL1       -0.0197
     24 C         143.7903  139.5537  165.4702 C.ar    1  UNL1       -0.0045
     25 C         142.8251  138.4091  165.5604 C.ar    1  UNL1       -0.0046
     26 C         141.8595  138.1522  164.4416 C.ar    1  UNL1       -0.0219
     27 C         140.8944  137.0076  164.5319 C.3     1  UNL1        0.0310
     28 C         141.8592  139.0399  163.2325 C.ar    1  UNL1       -0.0046
     29 C         142.8245  140.1846  163.1423 C.ar    1  UNL1       -0.0045
@<TRIPOS>UNITY_ATOM_ATTR
6 1
charge 1
@<TRIPOS>BOND
     1    12    13    1
     2    13    14   ar
     3    14    15   ar
     4    15    16   ar
     5    16    11    1
     6    11    10    1
     7    10     9    1
     8     9     8    1
     9     8     1    1
    10     1     2   ar
    11     2     3   ar
    12     3     4   ar
    13     4     5   ar
    14     5    19    1
    15    19    20    1
    16    20    21    1
    17    21    22    1
    18    22    23    1
    19    23    24   ar
    20    24    25   ar
    21    25    26   ar
    22    26    27    1
    23    26    28   ar
    24    28    29   ar
    25     5     6   ar
    26     6     7    1
    27    16    17   ar
    28    17    18   ar
    29    18    13   ar
    30     6     1   ar
    31    29    23   ar
@<TRIPOS>MOLECULE
*****
 29 31 0 0 0
SMALL
GASTEIGER

@<TRIPOS>ATOM
      1 C         142.1883  143.5688  161.8194 C.ar    1  UNL1        0.2331
      2 C         142.0344  144.7096  162.7811 C.ar    1  UNL1        0.0673
      3 C         143.0519  144.9211  163.8628 C.ar    1  UNL1        0.0116
      4 C         144.2232  143.9919  163.9828 C.ar    1  UNL1        0.0673
      5 C         144.3771  142.8510  163.0212 C.ar    1  UNL1        0.2331
      6 N         143.3597  142.6394  161.9395 N.ar    1  UNL1       -0.1663
      7 C         143.5135  141.4986  160.9778 C.3     1  UNL1        0.4077
      8 C         141.1709  143.3572  160.7377 C.3     1  UNL1        0.2389
      9 O         139.7722  142.9481  161.0933 O.3     1  UNL1       -0.3430
     10 C         139.3197  141.5380  160.8547 C.3     1  UNL1        0.1475
     11 C         139.9790  140.4052  161.5841 C.3     1  UNL1        0.0584
     12 C         137.9164  138.6873  166.9502 C.3     1  UNL1        0.0310
     13 C         138.4321  139.1168  165.6087 C.ar    1  UNL1       -0.0219
     14 C         139.2314  138.1626  164.7718 C.ar    1  UNL1       -0.0046
     15 C         139.7471  138.5920  163.4303 C.ar    1  UNL1       -0.0045
     16 C         139.4634  139.9758  162.9256 C.ar    1  UNL1       -0.0197
     17 C         138.6640  140.9300  163.7625 C.ar    1  UNL1       -0.0045
     18 C         138.1484  140.5006  165.1040 C.ar    1  UNL1       -0.0046
     19 C         145.5484  141.9217  163.1412 C.3     1  UNL1        0.2389
     20 O         145.5757  140.8856  164.2255 O.3     1  UNL1       -0.3430
     21 C         144.9027  139.5617  164.0149 C.3     1  UNL1        0.1475
     22 C         143.4053  139.4734  164.0127 C.3     1  UNL1        0.0584
     23 C         142.6211  140.0023  165.1768 C.ar    1  UNL1       -0.0197
     24 C         142.4099  139.1458  166.3900 C.ar    1  UNL1       -0.0045
     25 C         141.6257  139.6747  167.5542 C.ar    1  UNL1       -0.0046
     26 C         141.0526  141.0601  167.5052 C.ar    1  UNL1       -0.0219
     27 C         140.2684  141.5889  168.6693 C.3     1  UNL1        0.0310
     28 C         141.2638  141.9166  166.2920 C.ar    1  UNL1       -0.0046
     29 C         142.0481  141.3876  165.1278 C.ar    1  UNL1       -0.0045
@<TRIPOS>UNITY_ATOM_ATTR
6 1
charge 1
@<TRIPOS>BOND
     1    12    13    1
     2    13    14   ar
     3    14    15   ar
     4    15    16   ar
     5    16    11    1
     6    11    10    1
     7    10     9    1
     8     9     8    1
     9     8     1    1
    10     1     2   ar
    11     2     3   ar
    12     3     4   ar
    13     4     5   ar
    14     5    19    1
    15    19    20    1
    16    20    21    1
    17    21    22    1
    18    22    23    1
    19    23    24   ar
    20    24    25   ar
    21    25    26   ar
    22    26    27    1
    23    26    28   ar
    24    28    29   ar
    25     5     6   ar
    26     6     7    1
    27    16    17   ar
    28    17    18   ar
    29    18    13   ar
    30     6     1   ar
    31    29    23   ar
