@<TRIPOS>MOLECULE
*****
 26 29 0 0 0
SMALL
GASTEIGER

@<TRIPOS>ATOM
      1 C         140.3924  141.1636  166.7637 C.ar    1  UNL1        0.0152
      2 C         139.3042  140.5426  165.9389 C.ar    1  UNL1        0.0043
      3 C         138.5327  141.3799  164.9623 C.ar    1  UNL1        0.0369
      4 C         138.8495  142.8383  164.8105 C.ar    1  UNL1        0.1384
      5 C         139.9376  143.4592  165.6353 C.ar    1  UNL1        0.0369
      6 C         140.7091  142.6218  166.6119 C.ar    1  UNL1        0.0043
      7 C         139.4187  140.8712  169.5862 C.3     1  UNL1        0.0069
      8 C         140.6770  140.1800  169.1515 C.3     1  UNL1        0.0509
      9 C         141.4484  139.3426  170.1280 C.3     1  UNL1        0.0927
     10 C         142.7067  138.6514  169.6933 C.2     1  UNL1        0.2415
     11 O         143.4781  137.8140  170.6699 O.2     1  UNL1       -0.2734
     12 N         143.1935  138.7975  168.2821 N.am    1  UNL1       -0.2062
     13 N         142.4221  139.6349  167.3056 N.2     1  UNL1       -0.1836
     14 C         141.1638  140.3261  167.7403 C.2     1  UNL1        0.0763
     15 H         144.0193  138.3438  167.9968 H       1  UNL1        0.1772
     16 O         138.0780  143.6756  163.8340 O.3     1  UNL1       -0.4791
     17 C         138.7117  144.0944  162.5405 C.3     1  UNL1        0.1687
     18 C         139.2950  145.4693  162.4016 C.3     1  UNL1        0.0609
     19 C         139.9287  145.8880  161.1081 C.3     1  UNL1        0.0758
     20 N         139.9790  144.9319  159.9535 N.3     1  UNL1       -0.2737
     21 C         139.3956  143.5570  160.0923 C.3     1  UNL1        0.0758
     22 C         138.7619  143.1383  161.3858 C.3     1  UNL1        0.0609
     23 C         140.6126  145.3507  158.6600 C.3     1  UNL1        0.0575
     24 C         140.1602  146.1296  157.4605 C.3     1  UNL1        0.0160
     25 C         141.5087  145.9429  156.8307 C.3     1  UNL1        0.0028
     26 C         141.9612  145.1640  158.0301 C.3     1  UNL1        0.0160
@<TRIPOS>BOND
     1     8     7    1
     2     8     9    1
     3     9    10    1
     4    10    11    2
     5    10    12   am
     6    12    13    1
     7    13    14    2
     8    14     1    1
     9     1     2   ar
    10     2     3   ar
    11     3     4   ar
    12     4    16    1
    13    16    17    1
    14    17    18    1
    15    18    19    1
    16    19    20    1
    17    20    23    1
    18    23    24    1
    19    24    25    1
    20    25    26    1
    21    20    21    1
    22    21    22    1
    23     4     5   ar
    24     5     6   ar
    25    14     8    1
    26     6     1   ar
    27    22    17    1
    28    26    23    1
    29    12    15    1
@<TRIPOS>MOLECULE
*****
 26 29 0 0 0
SMALL
GASTEIGER

@<TRIPOS>ATOM
      1 C         139.8901  139.6402  166.9204 C.ar    1  UNL1        0.0152
      2 C         141.1019  139.4059  166.0680 C.ar    1  UNL1        0.0043
      3 C         140.9669  138.7043  164.7491 C.ar    1  UNL1        0.0369
      4 C         139.6200  138.2370  164.2826 C.ar    1  UNL1        0.1384
      5 C         138.4082  138.4713  165.1350 C.ar    1  UNL1        0.0369
      6 C         138.5433  139.1730  166.4539 C.ar    1  UNL1        0.0043
      7 C         140.5159  142.5731  167.0021 C.3     1  UNL1        0.0069
      8 C         140.3381  141.8083  168.2801 C.3     1  UNL1        0.0509
      9 C         140.4732  142.5099  169.5990 C.3     1  UNL1        0.0927
     10 C         140.2954  141.7450  170.8771 C.2     1  UNL1        0.2415
     11 O         140.4305  142.4467  172.1960 O.2     1  UNL1       -0.2734
     12 N         139.9825  140.2786  170.8363 N.am    1  UNL1       -0.2062
     13 N         139.8475  139.5771  169.5174 N.2     1  UNL1       -0.1836
     14 C         140.0252  140.3419  168.2393 C.2     1  UNL1        0.0763
     15 H         139.8659  139.7767  171.6751 H       1  UNL1        0.1772
     16 O         139.4849  137.5353  162.9637 O.3     1  UNL1       -0.4791
     17 C         139.1782  138.3218  161.7238 C.3     1  UNL1        0.1687
     18 C         137.8772  139.0588  161.6058 C.3     1  UNL1        0.0609
     19 C         137.5704  139.8452  160.3658 C.3     1  UNL1        0.0758
     20 N         138.5648  139.8946  159.2439 N.3     1  UNL1       -0.2737
     21 C         139.8658  139.1575  159.3619 C.3     1  UNL1        0.0758
     22 C         140.1725  138.3711  160.6018 C.3     1  UNL1        0.0609
     23 C         138.2581  140.6810  158.0039 C.3     1  UNL1        0.0575
     24 C         138.2009  140.3699  156.5376 C.3     1  UNL1        0.0160
     25 C         137.8243  141.7931  156.2504 C.3     1  UNL1        0.0028
     26 C         137.8814  142.1043  157.7166 C.3     1  UNL1        0.0160
@<TRIPOS>BOND
     1     8     7    1
     2     8     9    1
     3     9    10    1
     4    10    11    2
     5    10    12   am
     6    12    13    1
     7    13    14    2
     8    14     1    1
     9     1     2   ar
    10     2     3   ar
    11     3     4   ar
    12     4    16    1
    13    16    17    1
    14    17    18    1
    15    18    19    1
    16    19    20    1
    17    20    23    1
    18    23    24    1
    19    24    25    1
    20    25    26    1
    21    20    21    1
    22    21    22    1
    23     4     5   ar
    24     5     6   ar
    25    14     8    1
    26     6     1   ar
    27    22    17    1
    28    26    23    1
    29    12    15    1
@<TRIPOS>MOLECULE
*****
 26 29 0 0 0
SMALL
GASTEIGER

@<TRIPOS>ATOM
      1 C         142.6951  140.3124  167.2388 C.ar    1  UNL1        0.0152
      2 C         143.0842  138.8712  167.0920 C.ar    1  UNL1        0.0043
      3 C         143.6654  138.3792  165.7997 C.ar    1  UNL1        0.0369
      4 C         143.8574  139.3284  164.6541 C.ar    1  UNL1        0.1384
      5 C         143.4683  140.7696  164.8009 C.ar    1  UNL1        0.0369
      6 C         142.8871  141.2616  166.0933 C.ar    1  UNL1        0.0043
      7 C         139.7251  140.2714  167.6600 C.3     1  UNL1        0.0069
      8 C         140.6290  140.7839  168.7418 C.3     1  UNL1        0.0509
      9 C         140.0479  141.2759  170.0342 C.3     1  UNL1        0.0927
     10 C         140.9518  141.7884  171.1160 C.2     1  UNL1        0.2415
     11 O         140.3706  142.2805  172.4084 O.2     1  UNL1       -0.2734
     12 N         142.4368  141.8090  170.9054 N.am    1  UNL1       -0.2062
     13 N         143.0178  141.3170  169.6131 N.2     1  UNL1       -0.1836
     14 C         142.1139  140.8045  168.5313 C.2     1  UNL1        0.0763
     15 H         143.0300  142.1454  171.6154 H       1  UNL1        0.1772
     16 O         144.4385  138.8364  163.3618 O.3     1  UNL1       -0.4791
     17 C         143.5736  138.7364  162.1404 C.3     1  UNL1        0.1687
     18 C         144.0997  139.1868  160.8099 C.3     1  UNL1        0.0609
     19 C         143.2347  139.0868  159.5885 C.3     1  UNL1        0.0758
     20 N         141.8436  138.5364  159.6975 N.3     1  UNL1       -0.2737
     21 C         141.3175  138.0860  161.0280 C.3     1  UNL1        0.0758
     22 C         142.1825  138.1860  162.2495 C.3     1  UNL1        0.0609
     23 C         140.9787  138.4364  158.4761 C.3     1  UNL1        0.0575
     24 C         141.0728  137.7117  157.1662 C.3     1  UNL1        0.0160
     25 C         139.7554  138.2951  156.7488 C.3     1  UNL1        0.0028
     26 C         139.6613  139.0198  158.0587 C.3     1  UNL1        0.0160
@<TRIPOS>BOND
     1     8     7    1
     2     8     9    1
     3     9    10    1
     4    10    11    2
     5    10    12   am
     6    12    13    1
     7    13    14    2
     8    14     1    1
     9     1     2   ar
    10     2     3   ar
    11     3     4   ar
    12     4    16    1
    13    16    17    1
    14    17    18    1
    15    18    19    1
    16    19    20    1
    17    20    23    1
    18    23    24    1
    19    24    25    1
    20    25    26    1
    21    20    21    1
    22    21    22    1
    23     4     5   ar
    24     5     6   ar
    25    14     8    1
    26     6     1   ar
    27    22    17    1
    28    26    23    1
    29    12    15    1
@<TRIPOS>MOLECULE
*****
 26 29 0 0 0
SMALL
GASTEIGER

@<TRIPOS>ATOM
      1 C         140.1335  139.7292  166.5524 C.ar    1  UNL1        0.0152
      2 C         141.4810  139.2011  166.1585 C.ar    1  UNL1        0.0043
      3 C         141.6301  138.3819  164.9109 C.ar    1  UNL1        0.0369
      4 C         140.4315  138.0907  164.0571 C.ar    1  UNL1        0.1384
      5 C         139.0840  138.6188  164.4511 C.ar    1  UNL1        0.0369
      6 C         138.9350  139.4381  165.6988 C.ar    1  UNL1        0.0043
      7 C         141.0500  142.5856  166.5897 C.3     1  UNL1        0.0069
      8 C         140.4427  141.9767  167.8187 C.3     1  UNL1        0.0509
      9 C         140.2937  142.7959  169.0664 C.3     1  UNL1        0.0927
     10 C         139.6864  142.1870  170.2954 C.2     1  UNL1        0.2415
     11 O         139.5374  143.0063  171.5430 O.2     1  UNL1       -0.2734
     12 N         139.2282  140.7588  170.2767 N.am    1  UNL1       -0.2062
     13 N         139.3772  139.9396  169.0291 N.2     1  UNL1       -0.1836
     14 C         139.9845  140.5485  167.8001 C.2     1  UNL1        0.0763
     15 H         138.8296  140.3592  171.0834 H       1  UNL1        0.1772
     16 O         140.5806  137.2714  162.8095 O.3     1  UNL1       -0.4791
     17 C         141.2556  137.8562  161.6044 C.3     1  UNL1        0.1687
     18 C         140.4374  138.5046  160.5273 C.3     1  UNL1        0.0609
     19 C         141.1124  139.0894  159.3222 C.3     1  UNL1        0.0758
     20 N         142.6056  139.0259  159.1941 N.3     1  UNL1       -0.2737
     21 C         143.4237  138.3775  160.2713 C.3     1  UNL1        0.0758
     22 C         142.7487  137.7927  161.4764 C.3     1  UNL1        0.0609
     23 C         143.2806  139.6107  157.9890 C.3     1  UNL1        0.0575
     24 C         143.3158  139.2776  156.5268 C.3     1  UNL1        0.0160
     25 C         144.2351  140.4378  156.2847 C.3     1  UNL1        0.0028
     26 C         144.2000  140.7710  157.7468 C.3     1  UNL1        0.0160
@<TRIPOS>BOND
     1     8     7    1
     2     8     9    1
     3     9    10    1
     4    10    11    2
     5    10    12   am
     6    12    13    1
     7    13    14    2
     8    14     1    1
     9     1     2   ar
    10     2     3   ar
    11     3     4   ar
    12     4    16    1
    13    16    17    1
    14    17    18    1
    15    18    19    1
    16    19    20    1
    17    20    23    1
    18    23    24    1
    19    24    25    1
    20    25    26    1
    21    20    21    1
    22    21    22    1
    23     4     5   ar
    24     5     6   ar
    25    14     8    1
    26     6     1   ar
    27    22    17    1
    28    26    23    1
    29    12    15    1
@<TRIPOS>MOLECULE
*****
 26 29 0 0 0
SMALL
GASTEIGER

@<TRIPOS>ATOM
      1 C         140.2776  139.7065  166.6001 C.ar    1  UNL1        0.0152
      2 C         139.1015  139.3554  165.7378 C.ar    1  UNL1        0.0043
      3 C         139.2975  138.5252  164.5039 C.ar    1  UNL1        0.0369
      4 C         140.6695  138.0461  164.1323 C.ar    1  UNL1        0.1384
      5 C         141.8456  138.3973  164.9946 C.ar    1  UNL1        0.0369
      6 C         141.6496  139.2275  166.2285 C.ar    1  UNL1        0.0043
      7 C         141.0873  142.5952  166.6086 C.3     1  UNL1        0.0069
      8 C         140.4865  141.9810  167.8382 C.3     1  UNL1        0.0509
      9 C         140.2905  142.8112  169.0721 C.3     1  UNL1        0.0927
     10 C         139.6897  142.1970  170.3016 C.2     1  UNL1        0.2415
     11 O         139.4937  143.0272  171.5355 O.2     1  UNL1       -0.2734
     12 N         139.2849  140.7527  170.2974 N.am    1  UNL1       -0.2062
     13 N         139.4808  139.9226  169.0635 N.2     1  UNL1       -0.1836
     14 C         140.0816  140.5367  167.8339 C.2     1  UNL1        0.0763
     15 H         138.8905  140.3496  171.1044 H       1  UNL1        0.1772
     16 O         140.8654  137.2159  162.8985 O.3     1  UNL1       -0.4791
     17 C         141.4704  137.8289  161.6704 C.3     1  UNL1        0.1687
     18 C         140.5846  138.3975  160.6018 C.3     1  UNL1        0.0609
     19 C         141.1895  139.0104  159.3736 C.3     1  UNL1        0.0758
     20 N         142.6803  139.0547  159.2141 N.3     1  UNL1       -0.2737
     21 C         143.5662  138.4861  160.2827 C.3     1  UNL1        0.0758
     22 C         142.9612  137.8732  161.5108 C.3     1  UNL1        0.0609
     23 C         143.2853  139.6677  157.9859 C.3     1  UNL1        0.0575
     24 C         143.0598  139.5277  156.5095 C.3     1  UNL1        0.0160
     25 C         144.1408  140.5345  156.2491 C.3     1  UNL1        0.0028
     26 C         144.3663  140.6745  157.7254 C.3     1  UNL1        0.0160
@<TRIPOS>BOND
     1     8     7    1
     2     8     9    1
     3     9    10    1
     4    10    11    2
     5    10    12   am
     6    12    13    1
     7    13    14    2
     8    14     1    1
     9     1     2   ar
    10     2     3   ar
    11     3     4   ar
    12     4    16    1
    13    16    17    1
    14    17    18    1
    15    18    19    1
    16    19    20    1
    17    20    23    1
    18    23    24    1
    19    24    25    1
    20    25    26    1
    21    20    21    1
    22    21    22    1
    23     4     5   ar
    24     5     6   ar
    25    14     8    1
    26     6     1   ar
    27    22    17    1
    28    26    23    1
    29    12    15    1
@<TRIPOS>MOLECULE
*****
 26 29 0 0 0
SMALL
GASTEIGER

@<TRIPOS>ATOM
      1 C         142.9555  141.9820  166.6328 C.ar    1  UNL1        0.0152
      2 C         142.5532  140.8866  165.6903 C.ar    1  UNL1        0.0043
      3 C         143.1163  140.8485  164.3006 C.ar    1  UNL1        0.0369
      4 C         144.0818  141.9058  163.8532 C.ar    1  UNL1        0.1384
      5 C         144.4841  143.0012  164.7956 C.ar    1  UNL1        0.0369
      6 C         143.9209  143.0393  166.1854 C.ar    1  UNL1        0.0043
      7 C         140.1910  143.0483  167.1024 C.3     1  UNL1        0.0069
      8 C         141.0102  142.5533  168.2574 C.3     1  UNL1        0.0509
      9 C         140.4471  142.5914  169.6471 C.3     1  UNL1        0.0927
     10 C         141.2663  142.0963  170.8021 C.2     1  UNL1        0.2415
     11 O         140.7031  142.1344  172.1919 O.2     1  UNL1       -0.2734
     12 N         142.6485  141.5632  170.5673 N.am    1  UNL1       -0.2062
     13 N         143.2115  141.5251  169.1775 N.2     1  UNL1       -0.1836
     14 C         142.3924  142.0202  168.0226 C.2     1  UNL1        0.0763
     15 H         143.1861  141.2383  171.3253 H       1  UNL1        0.1772
     16 O         144.6448  141.8676  162.4635 O.3     1  UNL1       -0.4791
     17 C         143.9565  142.6072  161.3548 C.3     1  UNL1        0.1687
     18 C         142.8070  143.5203  161.6628 C.3     1  UNL1        0.0609
     19 C         142.1187  144.2599  160.5541 C.3     1  UNL1        0.0758
     20 N         142.5798  144.0863  159.1374 N.3     1  UNL1       -0.2737
     21 C         143.7292  143.1732  158.8293 C.3     1  UNL1        0.0758
     22 C         144.4176  142.4337  159.9380 C.3     1  UNL1        0.0609
     23 C         141.8914  144.8259  158.0286 C.3     1  UNL1        0.0575
     24 C         142.2082  145.1180  156.5918 C.3     1  UNL1        0.0160
     25 C         140.9180  145.8718  156.4607 C.3     1  UNL1        0.0028
     26 C         140.6012  145.5797  157.8975 C.3     1  UNL1        0.0160
@<TRIPOS>BOND
     1     8     7    1
     2     8     9    1
     3     9    10    1
     4    10    11    2
     5    10    12   am
     6    12    13    1
     7    13    14    2
     8    14     1    1
     9     1     2   ar
    10     2     3   ar
    11     3     4   ar
    12     4    16    1
    13    16    17    1
    14    17    18    1
    15    18    19    1
    16    19    20    1
    17    20    23    1
    18    23    24    1
    19    24    25    1
    20    25    26    1
    21    20    21    1
    22    21    22    1
    23     4     5   ar
    24     5     6   ar
    25    14     8    1
    26     6     1   ar
    27    22    17    1
    28    26    23    1
    29    12    15    1
@<TRIPOS>MOLECULE
*****
 26 29 0 0 0
SMALL
GASTEIGER

@<TRIPOS>ATOM
      1 C         139.9860  141.8943  166.6519 C.ar    1  UNL1        0.0152
      2 C         139.4090  140.5097  166.6648 C.ar    1  UNL1        0.0043
      3 C         138.5693  140.0364  165.5156 C.ar    1  UNL1        0.0369
      4 C         138.3065  140.9476  164.3534 C.ar    1  UNL1        0.1384
      5 C         138.8834  142.3321  164.3404 C.ar    1  UNL1        0.0369
      6 C         139.7232  142.8055  165.4897 C.ar    1  UNL1        0.0043
      7 C         142.8842  141.1346  166.8050 C.3     1  UNL1        0.0069
      8 C         142.2748  141.9878  167.8777 C.3     1  UNL1        0.0509
      9 C         143.1145  142.4611  169.0270 C.3     1  UNL1        0.0927
     10 C         142.5051  143.3143  170.0997 C.2     1  UNL1        0.2415
     11 O         143.3449  143.7877  171.2490 O.2     1  UNL1       -0.2734
     12 N         141.0561  143.6942  170.0231 N.am    1  UNL1       -0.2062
     13 N         140.2164  143.2208  168.8739 N.2     1  UNL1       -0.1836
     14 C         140.8258  142.3676  167.8012 C.2     1  UNL1        0.0763
     15 H         140.6561  144.2542  170.7272 H       1  UNL1        0.1772
     16 O         137.4667  140.4742  163.2041 O.3     1  UNL1       -0.4791
     17 C         138.1231  139.9381  161.9665 C.3     1  UNL1        0.1687
     18 C         138.1216  140.7498  160.7051 C.3     1  UNL1        0.0609
     19 C         138.7779  140.2137  159.4675 C.3     1  UNL1        0.0758
     20 N         139.4357  138.8658  159.4912 N.3     1  UNL1       -0.2737
     21 C         139.4371  138.0541  160.7525 C.3     1  UNL1        0.0758
     22 C         138.7808  138.5902  161.9902 C.3     1  UNL1        0.0609
     23 C         140.0920  138.3297  158.2535 C.3     1  UNL1        0.0575
     24 C         139.6051  137.6927  156.9857 C.3     1  UNL1        0.0160
     25 C         141.0201  137.5715  156.5032 C.3     1  UNL1        0.0028
     26 C         141.5071  138.2084  157.7709 C.3     1  UNL1        0.0160
@<TRIPOS>BOND
     1     8     7    1
     2     8     9    1
     3     9    10    1
     4    10    11    2
     5    10    12   am
     6    12    13    1
     7    13    14    2
     8    14     1    1
     9     1     2   ar
    10     2     3   ar
    11     3     4   ar
    12     4    16    1
    13    16    17    1
    14    17    18    1
    15    18    19    1
    16    19    20    1
    17    20    23    1
    18    23    24    1
    19    24    25    1
    20    25    26    1
    21    20    21    1
    22    21    22    1
    23     4     5   ar
    24     5     6   ar
    25    14     8    1
    26     6     1   ar
    27    22    17    1
    28    26    23    1
    29    12    15    1
@<TRIPOS>MOLECULE
*****
 26 29 0 0 0
SMALL
GASTEIGER

@<TRIPOS>ATOM
      1 C         141.1076  142.2749  166.5790 C.ar    1  UNL1        0.0152
      2 C         142.5833  142.0607  166.4165 C.ar    1  UNL1        0.0043
      3 C         143.3303  142.7785  165.3318 C.ar    1  UNL1        0.0369
      4 C         142.6016  143.7105  164.4095 C.ar    1  UNL1        0.1384
      5 C         141.1259  143.9246  164.5720 C.ar    1  UNL1        0.0369
      6 C         140.3789  143.2068  165.6568 C.ar    1  UNL1        0.0043
      7 C         141.0168  143.4218  169.3497 C.3     1  UNL1        0.0069
      8 C         140.3152  142.1305  169.0491 C.3     1  UNL1        0.0509
      9 C         139.5682  141.4126  170.1339 C.3     1  UNL1        0.0927
     10 C         138.8666  140.1214  169.8333 C.2     1  UNL1        0.2415
     11 O         138.1196  139.4035  170.9181 O.2     1  UNL1       -0.2734
     12 N         138.9120  139.5479  168.4480 N.am    1  UNL1       -0.2062
     13 N         139.6590  140.2657  167.3633 N.2     1  UNL1       -0.1836
     14 C         140.3606  141.5570  167.6639 C.2     1  UNL1        0.0763
     15 H         138.4515  138.7004  168.2508 H       1  UNL1        0.1772
     16 O         143.3487  144.4282  163.3247 O.3     1  UNL1       -0.4791
     17 C         143.5020  143.7945  161.9739 C.3     1  UNL1        0.1687
     18 C         142.5336  144.1237  160.8767 C.3     1  UNL1        0.0609
     19 C         142.6869  143.4899  159.5258 C.3     1  UNL1        0.0758
     20 N         143.8086  142.5270  159.2721 N.3     1  UNL1       -0.2737
     21 C         144.7770  142.1978  160.3693 C.3     1  UNL1        0.0758
     22 C         144.6237  142.8315  161.7201 C.3     1  UNL1        0.0609
     23 C         143.9620  141.8932  157.9213 C.3     1  UNL1        0.0575
     24 C         143.2737  142.0399  156.5965 C.3     1  UNL1        0.0160
     25 C         144.1788  140.9970  156.0109 C.3     1  UNL1        0.0028
     26 C         144.8671  140.8502  157.3355 C.3     1  UNL1        0.0160
@<TRIPOS>BOND
     1     8     7    1
     2     8     9    1
     3     9    10    1
     4    10    11    2
     5    10    12   am
     6    12    13    1
     7    13    14    2
     8    14     1    1
     9     1     2   ar
    10     2     3   ar
    11     3     4   ar
    12     4    16    1
    13    16    17    1
    14    17    18    1
    15    18    19    1
    16    19    20    1
    17    20    23    1
    18    23    24    1
    19    24    25    1
    20    25    26    1
    21    20    21    1
    22    21    22    1
    23     4     5   ar
    24     5     6   ar
    25    14     8    1
    26     6     1   ar
    27    22    17    1
    28    26    23    1
    29    12    15    1
@<TRIPOS>MOLECULE
*****
 26 29 0 0 0
SMALL
GASTEIGER

@<TRIPOS>ATOM
      1 C         140.4871  140.4240  166.8796 C.ar    1  UNL1        0.0152
      2 C         141.1771  140.3037  165.5532 C.ar    1  UNL1        0.0043
      3 C         140.5573  139.4893  164.4566 C.ar    1  UNL1        0.0369
      4 C         139.2475  138.7951  164.6864 C.ar    1  UNL1        0.1384
      5 C         138.5576  138.9154  166.0129 C.ar    1  UNL1        0.0369
      6 C         139.1774  139.7299  167.1095 C.ar    1  UNL1        0.0043
      7 C         142.7065  139.2689  168.5350 C.3     1  UNL1        0.0069
      8 C         142.2166  140.6609  168.8039 C.3     1  UNL1        0.0509
      9 C         142.8364  141.4754  169.9005 C.3     1  UNL1        0.0927
     10 C         142.3464  142.8674  170.1694 C.2     1  UNL1        0.2415
     11 O         142.9663  143.6818  171.2661 O.2     1  UNL1       -0.2734
     12 N         141.2368  143.4449  169.3418 N.am    1  UNL1       -0.2062
     13 N         140.6170  142.6305  168.2452 N.2     1  UNL1       -0.1836
     14 C         141.1069  141.2385  167.9763 C.2     1  UNL1        0.0763
     15 H         140.9152  144.3585  169.5183 H       1  UNL1        0.1772
     16 O         138.6278  137.9807  163.5898 O.3     1  UNL1       -0.4791
     17 C         138.5935  138.5132  162.1879 C.3     1  UNL1        0.1687
     18 C         139.5611  137.9958  161.1652 C.3     1  UNL1        0.0609
     19 C         139.5267  138.5282  159.7633 C.3     1  UNL1        0.0758
     20 N         138.5248  139.5781  159.3841 N.3     1  UNL1       -0.2737
     21 C         137.5571  140.0955  160.4068 C.3     1  UNL1        0.0758
     22 C         137.5915  139.5630  161.8087 C.3     1  UNL1        0.0609
     23 C         138.4904  140.1105  157.9822 C.3     1  UNL1        0.0575
     24 C         139.3238  139.9108  156.7510 C.3     1  UNL1        0.0160
     25 C         138.4418  140.8635  155.9996 C.3     1  UNL1        0.0028
     26 C         137.6085  141.0633  157.2307 C.3     1  UNL1        0.0160
@<TRIPOS>BOND
     1     8     7    1
     2     8     9    1
     3     9    10    1
     4    10    11    2
     5    10    12   am
     6    12    13    1
     7    13    14    2
     8    14     1    1
     9     1     2   ar
    10     2     3   ar
    11     3     4   ar
    12     4    16    1
    13    16    17    1
    14    17    18    1
    15    18    19    1
    16    19    20    1
    17    20    23    1
    18    23    24    1
    19    24    25    1
    20    25    26    1
    21    20    21    1
    22    21    22    1
    23     4     5   ar
    24     5     6   ar
    25    14     8    1
    26     6     1   ar
    27    22    17    1
    28    26    23    1
    29    12    15    1
