@<TRIPOS>MOLECULE
*****
 28 30 0 0 0
SMALL
GASTEIGER

@<TRIPOS>ATOM
      1 C         140.4518  143.6411  169.5616 C.3     1  UNL1        0.0768
      2 C         140.2782  142.2349  169.0692 C.ar    1  UNL1        0.1682
      3 O         139.7139  141.0887  169.8553 O.2     1  UNL1       -0.3565
      4 N         139.7253  139.8734  168.9761 N.ar    1  UNL1       -0.0760
      5 C         140.2967  140.2685  167.6466 C.ar    1  UNL1        0.1377
      6 C         140.6384  141.7279  167.7041 C.ar    1  UNL1        0.1073
      7 C         140.4921  139.3630  166.4668 C.ar    1  UNL1        0.0433
      8 C         139.3060  138.8905  165.6794 C.ar    1  UNL1        0.0601
      9 CL        137.9245  139.3235  166.0719 Cl      1  UNL1       -0.0822
     10 C         139.5015  137.9851  164.4996 C.ar    1  UNL1        0.0115
     11 C         140.8830  137.5522  164.1072 C.ar    1  UNL1        0.0017
     12 C         142.0690  138.0246  164.8945 C.ar    1  UNL1        0.0115
     13 C         141.8736  138.9301  166.0743 C.ar    1  UNL1        0.0601
     14 CL        143.0597  139.4026  166.8617 Cl      1  UNL1       -0.0822
     15 N         141.2354  142.5382  166.5920 N.am    1  UNL1       -0.2461
     16 C         140.3779  142.9844  165.4451 C.2     1  UNL1        0.4058
     17 O         138.9231  142.6204  165.4103 O.2     1  UNL1       -0.2261
     18 H         142.1902  142.7771  166.6147 H       1  UNL1        0.1583
     19 O         140.9749  143.7947  164.3329 O.3     1  UNL1       -0.4294
     20 C         141.6221  143.1068  163.1676 C.3     1  UNL1        0.2398
     21 C         142.8880  142.3269  163.3656 C.ar    1  UNL1        0.0593
     22 C         144.0363  142.9380  164.1127 C.ar    1  UNL1        0.1404
     23 F         143.9186  144.3289  164.6616 F       1  UNL1       -0.2044
     24 C         145.3022  142.1581  164.3107 C.ar    1  UNL1        0.0295
     25 C         145.4199  140.7671  163.7617 C.ar    1  UNL1        0.0032
     26 C         144.2716  140.1560  163.0147 C.ar    1  UNL1        0.0113
     27 C         143.0056  140.9359  162.8167 C.ar    1  UNL1        0.0593
     28 CL        141.8573  140.3248  162.0697 Cl      1  UNL1       -0.0824
@<TRIPOS>BOND
     1     1     2    1
     2     2     3   ar
     3     3     4   ar
     4     4     5   ar
     5     5     7    1
     6     7     8   ar
     7     8     9    1
     8     8    10   ar
     9    10    11   ar
    10    11    12   ar
    11    12    13   ar
    12    13    14    1
    13     5     6   ar
    14     6    15    1
    15    15    16   am
    16    16    17    2
    17    16    19    1
    18    19    20    1
    19    20    21    1
    20    21    22   ar
    21    22    23    1
    22    22    24   ar
    23    24    25   ar
    24    25    26   ar
    25    26    27   ar
    26    27    28    1
    27     6     2   ar
    28    27    21   ar
    29    13     7   ar
    30    15    18    1
@<TRIPOS>MOLECULE
*****
 28 30 0 0 0
SMALL
GASTEIGER

@<TRIPOS>ATOM
      1 C         142.6475  145.2810  163.6059 C.3     1  UNL1        0.0768
      2 C         141.4403  144.5399  164.0993 C.ar    1  UNL1        0.1682
      3 O         140.0150  144.9880  163.9654 O.2     1  UNL1       -0.3565
      4 N         139.1402  143.9457  164.5966 N.ar    1  UNL1       -0.0760
      5 C         140.0249  142.8535  165.1205 C.ar    1  UNL1        0.1377
      6 C         141.4463  143.2207  164.8132 C.ar    1  UNL1        0.1073
      7 C         139.5681  141.6119  165.8277 C.ar    1  UNL1        0.0433
      8 C         138.7213  140.6061  165.1058 C.ar    1  UNL1        0.0601
      9 CL        138.3311  140.8418  163.6767 Cl      1  UNL1       -0.0822
     10 C         138.2646  139.3647  165.8130 C.ar    1  UNL1        0.0115
     11 C         138.6548  139.1289  167.2420 C.ar    1  UNL1        0.0017
     12 C         139.5016  140.1347  167.9639 C.ar    1  UNL1        0.0115
     13 C         139.9583  141.3762  167.2567 C.ar    1  UNL1        0.0601
     14 CL        140.8053  142.3820  167.9786 Cl      1  UNL1       -0.0822
     15 N         142.6607  142.4110  165.1589 N.am    1  UNL1       -0.2461
     16 C         143.4668  141.7658  164.0709 C.2     1  UNL1        0.4058
     17 O         143.0585  141.9304  162.6369 O.2     1  UNL1       -0.2261
     18 H         142.9287  142.3030  166.1001 H       1  UNL1        0.1583
     19 O         144.6812  140.9561  164.4167 O.3     1  UNL1       -0.4294
     20 C         144.6794  139.4717  164.2006 C.3     1  UNL1        0.2398
     21 C         143.3880  138.7526  163.9455 C.ar    1  UNL1        0.0593
     22 C         143.0048  138.3731  162.5457 C.ar    1  UNL1        0.1404
     23 F         143.9128  138.7128  161.4012 F       1  UNL1       -0.2044
     24 C         141.7134  137.6539  162.2906 C.ar    1  UNL1        0.0295
     25 C         140.8052  137.3142  163.4351 C.ar    1  UNL1        0.0032
     26 C         141.1885  137.6936  164.8348 C.ar    1  UNL1        0.0113
     27 C         142.4799  138.4129  165.0900 C.ar    1  UNL1        0.0593
     28 CL        142.8632  138.7923  166.4897 Cl      1  UNL1       -0.0824
@<TRIPOS>BOND
     1     1     2    1
     2     2     3   ar
     3     3     4   ar
     4     4     5   ar
     5     5     7    1
     6     7     8   ar
     7     8     9    1
     8     8    10   ar
     9    10    11   ar
    10    11    12   ar
    11    12    13   ar
    12    13    14    1
    13     5     6   ar
    14     6    15    1
    15    15    16   am
    16    16    17    2
    17    16    19    1
    18    19    20    1
    19    20    21    1
    20    21    22   ar
    21    22    23    1
    22    22    24   ar
    23    24    25   ar
    24    25    26   ar
    25    26    27   ar
    26    27    28    1
    27     6     2   ar
    28    27    21   ar
    29    13     7   ar
    30    15    18    1
@<TRIPOS>MOLECULE
*****
 28 30 0 0 0
SMALL
GASTEIGER

@<TRIPOS>ATOM
      1 C         137.4044  138.8796  161.2878 C.3     1  UNL1        0.0768
      2 C         138.2817  138.6174  162.4760 C.ar    1  UNL1        0.1682
      3 O         139.1258  137.3972  162.6965 O.2     1  UNL1       -0.3565
      4 N         139.8346  137.5550  164.0090 N.ar    1  UNL1       -0.0760
      5 C         139.4286  138.8727  164.5996 C.ar    1  UNL1        0.1377
      6 C         138.4688  139.5293  163.6521 C.ar    1  UNL1        0.1073
      7 C         139.8996  139.4351  165.9081 C.ar    1  UNL1        0.0433
      8 C         141.2768  140.0187  166.0213 C.ar    1  UNL1        0.0601
      9 CL        142.1829  140.0400  164.8261 Cl      1  UNL1       -0.0822
     10 C         141.7478  140.5810  167.3296 C.ar    1  UNL1        0.0115
     11 C         140.8416  140.5597  168.5248 C.ar    1  UNL1        0.0017
     12 C         139.4645  139.9761  168.4116 C.ar    1  UNL1        0.0115
     13 C         138.9935  139.4138  167.1032 C.ar    1  UNL1        0.0601
     14 CL        137.6163  138.8301  166.9900 Cl      1  UNL1       -0.0822
     15 N         137.8115  140.8635  163.8467 N.am    1  UNL1       -0.2461
     16 C         138.1422  142.0034  162.9295 C.2     1  UNL1        0.4058
     17 O         139.1302  141.8091  161.8176 O.2     1  UNL1       -0.2261
     18 H         137.1631  140.9911  164.5764 H       1  UNL1        0.1583
     19 O         137.4849  143.3376  163.1240 O.3     1  UNL1       -0.4294
     20 C         138.1958  144.4208  163.8798 C.3     1  UNL1        0.2398
     21 C         139.6936  144.4200  163.9606 C.ar    1  UNL1        0.0593
     22 C         140.3888  143.5771  164.9883 C.ar    1  UNL1        0.1404
     23 F         139.5862  142.7350  165.9352 F       1  UNL1       -0.2044
     24 C         141.8866  143.5763  165.0691 C.ar    1  UNL1        0.0295
     25 C         142.6893  144.4184  164.1222 C.ar    1  UNL1        0.0032
     26 C         141.9941  145.2613  163.0945 C.ar    1  UNL1        0.0113
     27 C         140.4962  145.2622  163.0136 C.ar    1  UNL1        0.0593
     28 CL        139.8010  146.1051  161.9859 Cl      1  UNL1       -0.0824
@<TRIPOS>BOND
     1     1     2    1
     2     2     3   ar
     3     3     4   ar
     4     4     5   ar
     5     5     7    1
     6     7     8   ar
     7     8     9    1
     8     8    10   ar
     9    10    11   ar
    10    11    12   ar
    11    12    13   ar
    12    13    14    1
    13     5     6   ar
    14     6    15    1
    15    15    16   am
    16    16    17    2
    17    16    19    1
    18    19    20    1
    19    20    21    1
    20    21    22   ar
    21    22    23    1
    22    22    24   ar
    23    24    25   ar
    24    25    26   ar
    25    26    27   ar
    26    27    28    1
    27     6     2   ar
    28    27    21   ar
    29    13     7   ar
    30    15    18    1
@<TRIPOS>MOLECULE
*****
 28 30 0 0 0
SMALL
GASTEIGER

@<TRIPOS>ATOM
      1 C         142.1799  145.0983  162.8748 C.3     1  UNL1        0.0768
      2 C         141.1337  144.4813  163.7550 C.ar    1  UNL1        0.1682
      3 O         139.9210  145.1744  164.3019 O.2     1  UNL1       -0.3565
      4 N         139.1543  144.1843  165.1277 N.ar    1  UNL1       -0.0760
      5 C         139.8932  142.8794  165.0912 C.ar    1  UNL1        0.1377
      6 C         141.1165  143.0630  164.2429 C.ar    1  UNL1        0.1073
      7 C         139.4811  141.6132  165.7819 C.ar    1  UNL1        0.0433
      8 C         140.0322  141.2849  167.1378 C.ar    1  UNL1        0.0601
      9 CL        140.9955  142.2228  167.8031 Cl      1  UNL1       -0.0822
     10 C         139.6201  140.0188  167.8284 C.ar    1  UNL1        0.0115
     11 C         138.6568  139.0809  167.1632 C.ar    1  UNL1        0.0017
     12 C         138.1057  139.4092  165.8073 C.ar    1  UNL1        0.0115
     13 C         138.5178  140.6754  165.1167 C.ar    1  UNL1        0.0601
     14 CL        137.9667  141.0037  163.7607 Cl      1  UNL1       -0.0822
     15 N         142.1426  142.0127  163.9362 N.am    1  UNL1       -0.2461
     16 C         143.4751  142.0423  164.6241 C.2     1  UNL1        0.4058
     17 O         143.7817  143.1224  165.6189 O.2     1  UNL1       -0.2261
     18 H         141.9413  141.3038  163.2833 H       1  UNL1        0.1583
     19 O         144.5011  140.9920  164.3174 O.3     1  UNL1       -0.4294
     20 C         144.2929  139.5814  164.7832 C.3     1  UNL1        0.2398
     21 C         143.1252  138.7886  164.2753 C.ar    1  UNL1        0.0593
     22 C         142.0713  138.3104  165.2298 C.ar    1  UNL1        0.1404
     23 F         142.1852  138.6251  166.6919 F       1  UNL1       -0.2044
     24 C         140.9037  137.5176  164.7219 C.ar    1  UNL1        0.0295
     25 C         140.7898  137.2028  163.2597 C.ar    1  UNL1        0.0032
     26 C         141.8437  137.6809  162.3053 C.ar    1  UNL1        0.0113
     27 C         143.0114  138.4738  162.8131 C.ar    1  UNL1        0.0593
     28 CL        144.0653  138.9520  161.8588 Cl      1  UNL1       -0.0824
@<TRIPOS>BOND
     1     1     2    1
     2     2     3   ar
     3     3     4   ar
     4     4     5   ar
     5     5     7    1
     6     7     8   ar
     7     8     9    1
     8     8    10   ar
     9    10    11   ar
    10    11    12   ar
    11    12    13   ar
    12    13    14    1
    13     5     6   ar
    14     6    15    1
    15    15    16   am
    16    16    17    2
    17    16    19    1
    18    19    20    1
    19    20    21    1
    20    21    22   ar
    21    22    23    1
    22    22    24   ar
    23    24    25   ar
    24    25    26   ar
    25    26    27   ar
    26    27    28    1
    27     6     2   ar
    28    27    21   ar
    29    13     7   ar
    30    15    18    1
@<TRIPOS>MOLECULE
*****
 28 30 0 0 0
SMALL
GASTEIGER

@<TRIPOS>ATOM
      1 C         139.9643  144.3569  160.6272 C.3     1  UNL1        0.0768
      2 C         139.1918  143.3050  161.3666 C.ar    1  UNL1        0.1682
      3 O         137.6999  143.2453  161.5117 O.2     1  UNL1       -0.3565
      4 N         137.3617  142.0315  162.3255 N.ar    1  UNL1       -0.0760
      5 C         138.6444  141.3411  162.6834 C.ar    1  UNL1        0.1377
      6 C         139.7754  142.1282  162.0907 C.ar    1  UNL1        0.1073
      7 C         138.7734  140.0842  163.4920 C.ar    1  UNL1        0.0433
      8 C         139.0433  140.1647  164.9653 C.ar    1  UNL1        0.0601
      9 CL        139.1842  141.5019  165.6301 Cl      1  UNL1       -0.0822
     10 C         139.1722  138.9078  165.7738 C.ar    1  UNL1        0.0115
     11 C         139.0313  137.5706  165.1090 C.ar    1  UNL1        0.0017
     12 C         138.7615  137.4902  163.6357 C.ar    1  UNL1        0.0115
     13 C         138.6325  138.7470  162.8272 C.ar    1  UNL1        0.0601
     14 CL        138.3626  138.6666  161.3538 Cl      1  UNL1       -0.0822
     15 N         141.2340  141.7967  162.2026 N.am    1  UNL1       -0.2461
     16 C         142.1120  142.5797  163.1330 C.2     1  UNL1        0.4058
     17 O         141.5314  143.6945  163.9518 O.2     1  UNL1       -0.2261
     18 H         141.6151  141.0651  161.6652 H       1  UNL1        0.1583
     19 O         143.5707  142.2482  163.2449 O.3     1  UNL1       -0.4294
     20 C         144.0268  141.1826  164.1969 C.3     1  UNL1        0.2398
     21 C         143.4508  141.1164  165.5804 C.ar    1  UNL1        0.0593
     22 C         143.5358  142.3091  166.4860 C.ar    1  UNL1        0.1404
     23 F         144.1967  143.5680  166.0082 F       1  UNL1       -0.2044
     24 C         142.9599  142.2429  167.8694 C.ar    1  UNL1        0.0295
     25 C         142.2989  140.9840  168.3473 C.ar    1  UNL1        0.0032
     26 C         142.2139  139.7913  167.4416 C.ar    1  UNL1        0.0113
     27 C         142.7899  139.8574  166.0581 C.ar    1  UNL1        0.0593
     28 CL        142.7049  138.6647  165.1525 Cl      1  UNL1       -0.0824
@<TRIPOS>BOND
     1     1     2    1
     2     2     3   ar
     3     3     4   ar
     4     4     5   ar
     5     5     7    1
     6     7     8   ar
     7     8     9    1
     8     8    10   ar
     9    10    11   ar
    10    11    12   ar
    11    12    13   ar
    12    13    14    1
    13     5     6   ar
    14     6    15    1
    15    15    16   am
    16    16    17    2
    17    16    19    1
    18    19    20    1
    19    20    21    1
    20    21    22   ar
    21    22    23    1
    22    22    24   ar
    23    24    25   ar
    24    25    26   ar
    25    26    27   ar
    26    27    28    1
    27     6     2   ar
    28    27    21   ar
    29    13     7   ar
    30    15    18    1
@<TRIPOS>MOLECULE
*****
 28 30 0 0 0
SMALL
GASTEIGER

@<TRIPOS>ATOM
      1 C         141.7419  145.0454  162.2229 C.3     1  UNL1        0.0768
      2 C         140.7773  144.4404  163.1994 C.ar    1  UNL1        0.1682
      3 O         139.5372  145.0938  163.7335 O.2     1  UNL1       -0.3565
      4 N         138.8769  144.1331  164.6774 N.ar    1  UNL1       -0.0760
      5 C         139.7088  142.8859  164.7266 C.ar    1  UNL1        0.1377
      6 C         140.8833  143.0758  163.8131 C.ar    1  UNL1        0.1073
      7 C         139.4174  141.6633  165.5455 C.ar    1  UNL1        0.0433
      8 C         140.0640  141.4879  166.8875 C.ar    1  UNL1        0.0601
      9 CL        141.0020  142.5350  167.4107 Cl      1  UNL1       -0.0822
     10 C         139.7725  140.2654  167.7063 C.ar    1  UNL1        0.0115
     11 C         138.8345  139.2183  167.1831 C.ar    1  UNL1        0.0017
     12 C         138.1879  139.3938  165.8411 C.ar    1  UNL1        0.0115
     13 C         138.4794  140.6163  165.0223 C.ar    1  UNL1        0.0601
     14 CL        137.8327  140.7917  163.6802 Cl      1  UNL1       -0.0822
     15 N         141.9727  142.0767  163.5581 N.am    1  UNL1       -0.2461
     16 C         143.3418  142.2975  164.1295 C.2     1  UNL1        0.4058
     17 O         143.6217  143.5176  164.9561 O.2     1  UNL1       -0.2261
     18 H         141.7890  141.2759  163.0156 H       1  UNL1        0.1583
     19 O         144.4311  141.2983  163.8745 O.3     1  UNL1       -0.4294
     20 C         144.3587  139.9349  164.4957 C.3     1  UNL1        0.2398
     21 C         143.2362  139.0064  164.1379 C.ar    1  UNL1        0.0593
     22 C         142.9908  138.6444  162.7030 C.ar    1  UNL1        0.1404
     23 F         143.8677  139.2108  161.6261 F       1  UNL1       -0.2044
     24 C         141.8683  137.7159  162.3453 C.ar    1  UNL1        0.0295
     25 C         140.9912  137.1495  163.4223 C.ar    1  UNL1        0.0032
     26 C         141.2367  137.5115  164.8571 C.ar    1  UNL1        0.0113
     27 C         142.3592  138.4400  165.2150 C.ar    1  UNL1        0.0593
     28 CL        142.6047  138.8020  166.6498 Cl      1  UNL1       -0.0824
@<TRIPOS>BOND
     1     1     2    1
     2     2     3   ar
     3     3     4   ar
     4     4     5   ar
     5     5     7    1
     6     7     8   ar
     7     8     9    1
     8     8    10   ar
     9    10    11   ar
    10    11    12   ar
    11    12    13   ar
    12    13    14    1
    13     5     6   ar
    14     6    15    1
    15    15    16   am
    16    16    17    2
    17    16    19    1
    18    19    20    1
    19    20    21    1
    20    21    22   ar
    21    22    23    1
    22    22    24   ar
    23    24    25   ar
    24    25    26   ar
    25    26    27   ar
    26    27    28    1
    27     6     2   ar
    28    27    21   ar
    29    13     7   ar
    30    15    18    1
@<TRIPOS>MOLECULE
*****
 28 30 0 0 0
SMALL
GASTEIGER

@<TRIPOS>ATOM
      1 C         141.4678  145.4813  163.0566 C.3     1  UNL1        0.0768
      2 C         142.3510  144.5495  163.8324 C.ar    1  UNL1        0.1682
      3 O         143.7270  144.8594  164.3430 O.2     1  UNL1       -0.3565
      4 N         144.2396  143.6456  165.0599 N.ar    1  UNL1       -0.0760
      5 C         143.1804  142.5856  164.9925 C.ar    1  UNL1        0.1377
      6 C         142.0132  143.1442  164.2339 C.ar    1  UNL1        0.1073
      7 C         143.2724  141.2087  165.5805 C.ar    1  UNL1        0.0433
      8 C         143.9585  140.1127  164.8202 C.ar    1  UNL1        0.0601
      9 CL        144.5526  140.3936  163.4718 Cl      1  UNL1       -0.0822
     10 C         144.0504  138.7359  165.4082 C.ar    1  UNL1        0.0115
     11 C         143.4562  138.4550  166.7566 C.ar    1  UNL1        0.0017
     12 C         142.7702  139.5509  167.5169 C.ar    1  UNL1        0.0115
     13 C         142.6783  140.9278  166.9289 C.ar    1  UNL1        0.0601
     14 CL        141.9922  142.0238  167.6892 Cl      1  UNL1       -0.0822
     15 N         140.7330  142.4241  163.9300 N.am    1  UNL1       -0.2461
     16 C         139.4937  142.7332  164.7163 C.2     1  UNL1        0.4058
     17 O         139.5345  143.7626  165.8067 O.2     1  UNL1       -0.2261
     18 H         140.7062  141.7484  163.2144 H       1  UNL1        0.1583
     19 O         138.2134  142.0130  164.4125 O.3     1  UNL1       -0.4294
     20 C         138.0039  140.6135  164.9099 C.3     1  UNL1        0.2398
     21 C         138.8351  139.4909  164.3633 C.ar    1  UNL1        0.0593
     22 C         139.7723  138.7436  165.2653 C.ar    1  UNL1        0.1404
     23 F         139.8781  139.1189  166.7137 F       1  UNL1       -0.2044
     24 C         140.6035  137.6210  164.7188 C.ar    1  UNL1        0.0295
     25 C         140.4978  137.2456  163.2703 C.ar    1  UNL1        0.0032
     26 C         139.5607  137.9929  162.3684 C.ar    1  UNL1        0.0113
     27 C         138.7293  139.1156  162.9149 C.ar    1  UNL1        0.0593
     28 CL        137.7922  139.8629  162.0130 Cl      1  UNL1       -0.0824
@<TRIPOS>BOND
     1     1     2    1
     2     2     3   ar
     3     3     4   ar
     4     4     5   ar
     5     5     7    1
     6     7     8   ar
     7     8     9    1
     8     8    10   ar
     9    10    11   ar
    10    11    12   ar
    11    12    13   ar
    12    13    14    1
    13     5     6   ar
    14     6    15    1
    15    15    16   am
    16    16    17    2
    17    16    19    1
    18    19    20    1
    19    20    21    1
    20    21    22   ar
    21    22    23    1
    22    22    24   ar
    23    24    25   ar
    24    25    26   ar
    25    26    27   ar
    26    27    28    1
    27     6     2   ar
    28    27    21   ar
    29    13     7   ar
    30    15    18    1
@<TRIPOS>MOLECULE
*****
 28 30 0 0 0
SMALL
GASTEIGER

@<TRIPOS>ATOM
      1 C         141.4957  138.5248  160.6636 C.3     1  UNL1        0.0768
      2 C         141.3604  138.2108  162.1241 C.ar    1  UNL1        0.1682
      3 O         141.0915  136.8580  162.7139 O.2     1  UNL1       -0.3565
      4 N         141.0351  137.0056  164.2055 N.ar    1  UNL1       -0.0760
      5 C         141.2691  138.4496  164.5377 C.ar    1  UNL1        0.1377
      6 C         141.4701  139.1944  163.2513 C.ar    1  UNL1        0.1073
      7 C         141.2972  139.0442  165.9145 C.ar    1  UNL1        0.0433
      8 C         142.5680  139.0313  166.7113 C.ar    1  UNL1        0.0601
      9 CL        143.8107  138.4237  166.1313 Cl      1  UNL1       -0.0822
     10 C         142.5960  139.6260  168.0881 C.ar    1  UNL1        0.0115
     11 C         141.3532  140.2336  168.6680 C.ar    1  UNL1        0.0017
     12 C         140.0825  140.2465  167.8713 C.ar    1  UNL1        0.0115
     13 C         140.0544  139.6519  166.4945 C.ar    1  UNL1        0.0601
     14 CL        138.7836  139.6648  165.6976 Cl      1  UNL1       -0.0822
     15 N         141.7345  140.6647  163.1158 N.am    1  UNL1       -0.2461
     16 C         143.1238  141.1540  162.8324 C.2     1  UNL1        0.4058
     17 O         144.2489  140.1730  162.6846 O.2     1  UNL1       -0.2261
     18 H         140.9961  141.3085  163.2128 H       1  UNL1        0.1583
     19 O         143.3881  142.6243  162.6969 O.3     1  UNL1       -0.4294
     20 C         143.1075  143.5459  163.8467 C.3     1  UNL1        0.2398
     21 C         141.6941  143.7852  164.2884 C.ar    1  UNL1        0.0593
     22 C         141.2004  143.1941  165.5756 C.ar    1  UNL1        0.1404
     23 F         142.1199  142.3638  166.4211 F       1  UNL1       -0.2044
     24 C         139.7870  143.4335  166.0173 C.ar    1  UNL1        0.0295
     25 C         138.8674  144.2638  165.1718 C.ar    1  UNL1        0.0032
     26 C         139.3611  144.8549  163.8847 C.ar    1  UNL1        0.0113
     27 C         140.7746  144.6156  163.4429 C.ar    1  UNL1        0.0593
     28 CL        141.2684  145.2066  162.1557 Cl      1  UNL1       -0.0824
@<TRIPOS>BOND
     1     1     2    1
     2     2     3   ar
     3     3     4   ar
     4     4     5   ar
     5     5     7    1
     6     7     8   ar
     7     8     9    1
     8     8    10   ar
     9    10    11   ar
    10    11    12   ar
    11    12    13   ar
    12    13    14    1
    13     5     6   ar
    14     6    15    1
    15    15    16   am
    16    16    17    2
    17    16    19    1
    18    19    20    1
    19    20    21    1
    20    21    22   ar
    21    22    23    1
    22    22    24   ar
    23    24    25   ar
    24    25    26   ar
    25    26    27   ar
    26    27    28    1
    27     6     2   ar
    28    27    21   ar
    29    13     7   ar
    30    15    18    1
@<TRIPOS>MOLECULE
*****
 28 30 0 0 0
SMALL
GASTEIGER

@<TRIPOS>ATOM
      1 C         137.2287  139.4916  160.9355 C.3     1  UNL1        0.0768
      2 C         138.1386  139.0408  162.0396 C.ar    1  UNL1        0.1682
      3 O         138.8643  137.7295  162.1039 O.2     1  UNL1       -0.3565
      4 N         139.6567  137.7003  163.3772 N.ar    1  UNL1       -0.0760
      5 C         139.4208  138.9935  164.0997 C.ar    1  UNL1        0.1377
      6 C         138.4826  139.8219  163.2730 C.ar    1  UNL1        0.1073
      7 C         140.0183  139.3889  165.4176 C.ar    1  UNL1        0.0433
      8 C         141.4640  139.7805  165.4984 C.ar    1  UNL1        0.0601
      9 CL        142.3123  139.7768  164.2613 Cl      1  UNL1       -0.0822
     10 C         142.0614  140.1758  166.8162 C.ar    1  UNL1        0.0115
     11 C         141.2131  140.1795  168.0533 C.ar    1  UNL1        0.0017
     12 C         139.7675  139.7879  167.9726 C.ar    1  UNL1        0.0115
     13 C         139.1700  139.3926  166.6547 C.ar    1  UNL1        0.0601
     14 CL        137.7243  139.0010  166.5739 Cl      1  UNL1       -0.0822
     15 N         137.9771  141.1911  163.6190 N.am    1  UNL1       -0.2461
     16 C         138.4125  142.3777  162.8114 C.2     1  UNL1        0.4058
     17 O         139.3537  142.1951  161.6577 O.2     1  UNL1       -0.2261
     18 H         137.3594  141.3110  164.3762 H       1  UNL1        0.1583
     19 O         137.9070  143.7469  163.1574 O.3     1  UNL1       -0.4294
     20 C         138.7829  144.7006  163.9145 C.3     1  UNL1        0.2398
     21 C         140.2635  144.4694  163.9788 C.ar    1  UNL1        0.0593
     22 C         141.1673  145.1112  162.9681 C.ar    1  UNL1        0.1404
     23 F         140.5905  145.9841  161.8934 F       1  UNL1       -0.2044
     24 C         142.6480  144.8800  163.0323 C.ar    1  UNL1        0.0295
     25 C         143.2250  144.0071  164.1071 C.ar    1  UNL1        0.0032
     26 C         142.3212  143.3653  165.1177 C.ar    1  UNL1        0.0113
     27 C         140.8404  143.5965  165.0536 C.ar    1  UNL1        0.0593
     28 CL        139.9366  142.9547  166.0641 Cl      1  UNL1       -0.0824
@<TRIPOS>BOND
     1     1     2    1
     2     2     3   ar
     3     3     4   ar
     4     4     5   ar
     5     5     7    1
     6     7     8   ar
     7     8     9    1
     8     8    10   ar
     9    10    11   ar
    10    11    12   ar
    11    12    13   ar
    12    13    14    1
    13     5     6   ar
    14     6    15    1
    15    15    16   am
    16    16    17    2
    17    16    19    1
    18    19    20    1
    19    20    21    1
    20    21    22   ar
    21    22    23    1
    22    22    24   ar
    23    24    25   ar
    24    25    26   ar
    25    26    27   ar
    26    27    28    1
    27     6     2   ar
    28    27    21   ar
    29    13     7   ar
    30    15    18    1
