@<TRIPOS>MOLECULE
*****
 38 42 0 0 0
SMALL
GASTEIGER

@<TRIPOS>ATOM
      1 C         140.4515  144.4455  156.7034 C.3     1  UNL1        0.1024
      2 C         140.8110  143.9238  155.3438 C.3     1  UNL1        0.0643
      3 C         141.0479  142.4564  155.1422 C.3     1  UNL1        0.1368
      4 C         141.3657  141.1612  154.4556 C.3     1  UNL1        0.0437
      5 C         141.2809  142.9521  153.7458 C.3     1  UNL1        0.0437
      6 O         140.9253  141.5108  156.3001 O.3     1  UNL1       -0.4676
      7 C         140.5658  142.0326  157.6597 C.ar    1  UNL1        0.2219
      8 N         140.4432  141.0870  158.8177 N.ar    1  UNL1       -0.2119
      9 C         140.0837  141.6088  160.1772 C.ar    1  UNL1        0.0851
     10 C         139.8467  143.0762  160.3789 C.ar    1  UNL1        0.0177
     11 C         139.9693  144.0218  159.2210 C.ar    1  UNL1        0.0034
     12 C         140.3289  143.4999  157.8613 C.ar    1  UNL1        0.0488
     13 C         139.9611  140.6632  161.3352 C.ar    1  UNL1        0.0284
     14 C         141.1127  140.4797  162.2788 C.ar    1  UNL1        0.0032
     15 C         140.9901  139.5341  163.4367 C.ar    1  UNL1        0.0115
     16 C         139.7159  138.7720  163.6511 C.ar    1  UNL1        0.0585
     17 CL        139.5933  137.8264  164.8090 Cl      1  UNL1       -0.0822
     18 C         138.5644  138.9555  162.7075 C.ar    1  UNL1        0.0228
     19 C         138.6870  139.9011  161.5495 C.ar    1  UNL1        0.0599
     20 CL        137.5356  140.0847  160.6060 Cl      1  UNL1       -0.0822
     21 C         139.4872  143.5980  161.7385 C.ar    1  UNL1        0.0015
     22 C         138.0751  143.4922  162.2331 C.ar    1  UNL1        0.0009
     23 C         137.7156  144.0140  163.5928 C.ar    1  UNL1        0.0114
     24 C         138.7682  144.6415  164.4577 C.ar    1  UNL1        0.0577
     25 CL        138.4087  145.1633  165.8172 Cl      1  UNL1       -0.0822
     26 C         140.1804  144.7473  163.9630 C.ar    1  UNL1        0.0114
     27 C         140.5399  144.2255  162.6035 C.ar    1  UNL1        0.0009
     28 C         139.0984  146.5997  156.1752 C.2     1  UNL1        0.2618
     29 O         138.2193  145.8190  155.2436 O.2     1  UNL1       -0.2688
     30 N         140.2145  145.9130  156.9051 N.am    1  UNL1       -0.2974
     31 H         140.7915  146.4253  157.5165 H       1  UNL1        0.1500
     32 C         138.7430  151.7954  155.3041 C.3     1  UNL1        0.0495
     33 C         138.6981  150.4552  155.9764 C.2     1  UNL1        0.0641
     34 N         138.2955  150.1950  157.3978 N.2     1  UNL1       -0.1565
     35 N         138.3965  148.7190  157.6452 N.2     1  UNL1       -0.1480
     36 C         138.8615  148.0670  156.3768 C.2     1  UNL1        0.1384
     37 C         139.0479  149.1401  155.3455 C.3     1  UNL1        0.0844
     38 C         139.5039  148.9343  153.9314 C.3     1  UNL1        0.0126
@<TRIPOS>BOND
     1    32    33    1
     2    33    34    2
     3    34    35    1
     4    35    36    2
     5    36    28    1
     6    28    29    2
     7    28    30   am
     8     1    30    1
     9     1     2    1
    10     2     3    1
    11     3     4    1
    12     3     5    1
    13     3     6    1
    14     6     7    1
    15     7     8   ar
    16     8     9   ar
    17     9    13    1
    18    13    14   ar
    19    14    15   ar
    20    15    16   ar
    21    16    17    1
    22    16    18   ar
    23    18    19   ar
    24    19    20    1
    25     9    10   ar
    26    10    21    1
    27    21    22   ar
    28    22    23   ar
    29    23    24   ar
    30    24    25    1
    31    24    26   ar
    32    26    27   ar
    33    10    11   ar
    34    11    12   ar
    35    36    37    1
    36    37    38    1
    37    37    33    1
    38    12     1    1
    39    12     7   ar
    40    19    13   ar
    41    27    21   ar
    42    30    31    1
@<TRIPOS>MOLECULE
*****
 38 42 0 0 0
SMALL
GASTEIGER

@<TRIPOS>ATOM
      1 C         138.7653  139.9750  156.9788 C.3     1  UNL1        0.1024
      2 C         138.1257  140.5573  155.7534 C.3     1  UNL1        0.0643
      3 C         137.4555  141.8974  155.8220 C.3     1  UNL1        0.1368
      4 C         136.7054  143.1221  155.3890 C.3     1  UNL1        0.0437
      5 C         137.2255  141.5649  154.3775 C.3     1  UNL1        0.0437
      6 O         137.4249  142.6554  157.1161 O.3     1  UNL1       -0.4676
      7 C         138.0646  142.0731  158.3415 C.ar    1  UNL1        0.2219
      8 N         138.0340  142.8310  159.6356 N.ar    1  UNL1       -0.2119
      9 C         138.6736  142.2488  160.8611 C.ar    1  UNL1        0.0851
     10 C         139.3439  140.9085  160.7925 C.ar    1  UNL1        0.0177
     11 C         139.3744  140.1506  159.4984 C.ar    1  UNL1        0.0034
     12 C         138.7347  140.7329  158.2729 C.ar    1  UNL1        0.0488
     13 C         138.6431  143.0067  162.1551 C.ar    1  UNL1        0.0284
     14 C         137.5802  142.7123  163.1718 C.ar    1  UNL1        0.0032
     15 C         137.5496  143.4702  164.4659 C.ar    1  UNL1        0.0115
     16 C         138.5820  144.5225  164.7433 C.ar    1  UNL1        0.0585
     17 CL        138.5514  145.2804  166.0374 Cl      1  UNL1       -0.0822
     18 C         139.6449  144.8169  163.7266 C.ar    1  UNL1        0.0228
     19 C         139.6754  144.0589  162.4326 C.ar    1  UNL1        0.0599
     20 CL        140.7383  144.3533  161.4159 Cl      1  UNL1       -0.0822
     21 C         139.9835  140.3262  162.0180 C.ar    1  UNL1        0.0015
     22 C         139.2175  139.3670  162.8800 C.ar    1  UNL1        0.0009
     23 C         139.8572  138.7848  164.1056 C.ar    1  UNL1        0.0114
     24 C         141.2628  139.1617  164.4689 C.ar    1  UNL1        0.0577
     25 CL        141.9024  138.5795  165.6944 Cl      1  UNL1       -0.0822
     26 C         142.0288  140.1209  163.6069 C.ar    1  UNL1        0.0114
     27 C         141.3892  140.7032  162.3814 C.ar    1  UNL1        0.0009
     28 C         140.8996  138.5435  156.5970 C.2     1  UNL1        0.2618
     29 O         141.6935  139.7926  156.3523 O.2     1  UNL1       -0.2688
     30 N         139.4355  138.6348  156.9103 N.am    1  UNL1       -0.2974
     31 H         138.9144  137.8150  157.0709 H       1  UNL1        0.1500
     32 C         142.2283  133.6653  155.0745 C.3     1  UNL1        0.0495
     33 C         142.1805  134.9611  155.8286 C.2     1  UNL1        0.0641
     34 N         143.0219  135.3210  157.0172 N.2     1  UNL1       -0.1565
     35 N         142.6444  136.7068  157.4497 N.2     1  UNL1       -0.1480
     36 C         141.5698  137.2034  156.5284 C.2     1  UNL1        0.1384
     37 C         141.2832  136.1245  155.5266 C.3     1  UNL1        0.0844
     38 C         140.2760  136.1963  154.4173 C.3     1  UNL1        0.0126
@<TRIPOS>BOND
     1    32    33    1
     2    33    34    2
     3    34    35    1
     4    35    36    2
     5    36    28    1
     6    28    29    2
     7    28    30   am
     8     1    30    1
     9     1     2    1
    10     2     3    1
    11     3     4    1
    12     3     5    1
    13     3     6    1
    14     6     7    1
    15     7     8   ar
    16     8     9   ar
    17     9    13    1
    18    13    14   ar
    19    14    15   ar
    20    15    16   ar
    21    16    17    1
    22    16    18   ar
    23    18    19   ar
    24    19    20    1
    25     9    10   ar
    26    10    21    1
    27    21    22   ar
    28    22    23   ar
    29    23    24   ar
    30    24    25    1
    31    24    26   ar
    32    26    27   ar
    33    10    11   ar
    34    11    12   ar
    35    36    37    1
    36    37    38    1
    37    37    33    1
    38    12     1    1
    39    12     7   ar
    40    19    13   ar
    41    27    21   ar
    42    30    31    1
@<TRIPOS>MOLECULE
*****
 38 42 0 0 0
SMALL
GASTEIGER

@<TRIPOS>ATOM
      1 C         143.9026  140.1402  155.9449 C.3     1  UNL1        0.1024
      2 C         144.6996  140.7965  154.8568 C.3     1  UNL1        0.0643
      3 C         145.5952  141.9559  155.1784 C.3     1  UNL1        0.1368
      4 C         146.5748  143.0757  154.9873 C.3     1  UNL1        0.0437
      5 C         145.8368  141.8417  153.7024 C.3     1  UNL1        0.0437
      6 O         145.6939  142.4590  156.5880 O.3     1  UNL1       -0.4676
      7 C         144.8969  141.8028  157.6761 C.ar    1  UNL1        0.2219
      8 N         144.9956  142.3059  159.0858 N.ar    1  UNL1       -0.2119
      9 C         144.1986  141.6496  160.1739 C.ar    1  UNL1        0.0851
     10 C         143.3029  140.4901  159.8524 C.ar    1  UNL1        0.0177
     11 C         143.2042  139.9870  158.4427 C.ar    1  UNL1        0.0034
     12 C         144.0013  140.6433  157.3546 C.ar    1  UNL1        0.0488
     13 C         144.2973  142.1527  161.5835 C.ar    1  UNL1        0.0284
     14 C         145.2889  141.5431  162.5298 C.ar    1  UNL1        0.0032
     15 C         145.3876  142.0462  163.9394 C.ar    1  UNL1        0.0115
     16 C         144.4947  143.1590  164.4028 C.ar    1  UNL1        0.0585
     17 CL        144.5934  143.6622  165.8125 Cl      1  UNL1       -0.0822
     18 C         143.5033  143.7686  163.4566 C.ar    1  UNL1        0.0228
     19 C         143.4046  143.2655  162.0470 C.ar    1  UNL1        0.0599
     20 CL        142.4131  143.8750  161.1007 Cl      1  UNL1       -0.0822
     21 C         142.5059  139.8338  160.9405 C.ar    1  UNL1        0.0015
     22 C         143.0628  138.6441  161.6647 C.ar    1  UNL1        0.0009
     23 C         142.2657  137.9878  162.7529 C.ar    1  UNL1        0.0114
     24 C         140.9118  138.5212  163.1168 C.ar    1  UNL1        0.0577
     25 CL        140.1149  137.8650  164.2049 Cl      1  UNL1       -0.0822
     26 C         140.3550  139.7109  162.3926 C.ar    1  UNL1        0.0114
     27 C         141.1520  140.3672  161.3045 C.ar    1  UNL1        0.0009
     28 C         143.5973  137.6270  155.3613 C.2     1  UNL1        0.2618
     29 O         145.0835  137.4327  155.4206 O.2     1  UNL1       -0.2688
     30 N         143.0068  138.9807  155.6234 N.am    1  UNL1       -0.2974
     31 H         142.0314  139.1082  155.5845 H       1  UNL1        0.1500
     32 C         141.3081  132.8700  155.4654 C.3     1  UNL1        0.0495
     33 C         141.6494  134.2810  155.0877 C.2     1  UNL1        0.0641
     34 N         140.9973  135.0855  154.0025 N.2     1  UNL1       -0.1565
     35 N         141.6476  136.4369  153.9729 N.2     1  UNL1       -0.1480
     36 C         142.7017  136.4675  155.0398 C.2     1  UNL1        0.1384
     37 C         142.7027  135.1351  155.7287 C.3     1  UNL1        0.0844
     38 C         143.5996  134.7282  156.8601 C.3     1  UNL1        0.0126
@<TRIPOS>BOND
     1    32    33    1
     2    33    34    2
     3    34    35    1
     4    35    36    2
     5    36    28    1
     6    28    29    2
     7    28    30   am
     8     1    30    1
     9     1     2    1
    10     2     3    1
    11     3     4    1
    12     3     5    1
    13     3     6    1
    14     6     7    1
    15     7     8   ar
    16     8     9   ar
    17     9    13    1
    18    13    14   ar
    19    14    15   ar
    20    15    16   ar
    21    16    17    1
    22    16    18   ar
    23    18    19   ar
    24    19    20    1
    25     9    10   ar
    26    10    21    1
    27    21    22   ar
    28    22    23   ar
    29    23    24   ar
    30    24    25    1
    31    24    26   ar
    32    26    27   ar
    33    10    11   ar
    34    11    12   ar
    35    36    37    1
    36    37    38    1
    37    37    33    1
    38    12     1    1
    39    12     7   ar
    40    19    13   ar
    41    27    21   ar
    42    30    31    1
@<TRIPOS>MOLECULE
*****
 38 42 0 0 0
SMALL
GASTEIGER

@<TRIPOS>ATOM
      1 C         139.6082  137.8430  156.2529 C.3     1  UNL1        0.1024
      2 C         139.0353  138.2100  154.9161 C.3     1  UNL1        0.0643
      3 C         138.2663  139.4877  154.7550 C.3     1  UNL1        0.1368
      4 C         137.4692  140.5810  154.1075 C.3     1  UNL1        0.0437
      5 C         138.1856  138.9569  153.3544 C.3     1  UNL1        0.0437
      6 O         138.0701  140.3983  155.9307 O.3     1  UNL1       -0.4676
      7 C         138.6429  140.0313  157.2675 C.ar    1  UNL1        0.2219
      8 N         138.4467  140.9419  158.4432 N.ar    1  UNL1       -0.2119
      9 C         139.0195  140.5748  159.7800 C.ar    1  UNL1        0.0851
     10 C         139.7886  139.2971  159.9412 C.ar    1  UNL1        0.0177
     11 C         139.9848  138.3865  158.7655 C.ar    1  UNL1        0.0034
     12 C         139.4119  138.7536  157.4286 C.ar    1  UNL1        0.0488
     13 C         138.8233  141.4855  160.9557 C.ar    1  UNL1        0.0284
     14 C         137.7083  141.2283  161.9256 C.ar    1  UNL1        0.0032
     15 C         137.5121  142.1390  163.1013 C.ar    1  UNL1        0.0115
     16 C         138.4308  143.3067  163.3071 C.ar    1  UNL1        0.0585
     17 CL        138.2346  144.2174  164.4828 Cl      1  UNL1       -0.0822
     18 C         139.5458  143.5638  162.3371 C.ar    1  UNL1        0.0228
     19 C         139.7420  142.6532  161.1614 C.ar    1  UNL1        0.0599
     20 CL        140.8569  142.9103  160.1915 Cl      1  UNL1       -0.0822
     21 C         140.3615  138.9300  161.2780 C.ar    1  UNL1        0.0015
     22 C         139.6233  137.9814  162.1753 C.ar    1  UNL1        0.0009
     23 C         140.1963  137.6143  163.5122 C.ar    1  UNL1        0.0114
     24 C         141.5072  138.1959  163.9516 C.ar    1  UNL1        0.0577
     25 CL        142.0800  137.8288  165.2884 Cl      1  UNL1       -0.0822
     26 C         142.2453  139.1445  163.0542 C.ar    1  UNL1        0.0114
     27 C         141.6725  139.5116  161.7174 C.ar    1  UNL1        0.0009
     28 C         141.8670  136.5593  156.2386 C.2     1  UNL1        0.2618
     29 O         142.5875  137.8311  155.9019 O.2     1  UNL1       -0.2688
     30 N         140.3773  136.5652  156.4141 N.am    1  UNL1       -0.2974
     31 H         139.9043  135.7305  156.6350 H       1  UNL1        0.1500
     32 C         144.0278  131.8414  155.2624 C.3     1  UNL1        0.0495
     33 C         143.6293  133.1131  155.9510 C.2     1  UNL1        0.0641
     34 N         144.0100  133.5179  157.3443 N.2     1  UNL1       -0.1565
     35 N         143.3961  134.8581  157.6216 N.2     1  UNL1       -0.1480
     36 C         142.6361  135.2816  156.3997 C.2     1  UNL1        0.1384
     37 C         142.7802  134.2031  155.3672 C.3     1  UNL1        0.0844
     38 C         142.1805  134.2129  153.9924 C.3     1  UNL1        0.0126
@<TRIPOS>BOND
     1    32    33    1
     2    33    34    2
     3    34    35    1
     4    35    36    2
     5    36    28    1
     6    28    29    2
     7    28    30   am
     8     1    30    1
     9     1     2    1
    10     2     3    1
    11     3     4    1
    12     3     5    1
    13     3     6    1
    14     6     7    1
    15     7     8   ar
    16     8     9   ar
    17     9    13    1
    18    13    14   ar
    19    14    15   ar
    20    15    16   ar
    21    16    17    1
    22    16    18   ar
    23    18    19   ar
    24    19    20    1
    25     9    10   ar
    26    10    21    1
    27    21    22   ar
    28    22    23   ar
    29    23    24   ar
    30    24    25    1
    31    24    26   ar
    32    26    27   ar
    33    10    11   ar
    34    11    12   ar
    35    36    37    1
    36    37    38    1
    37    37    33    1
    38    12     1    1
    39    12     7   ar
    40    19    13   ar
    41    27    21   ar
    42    30    31    1
@<TRIPOS>MOLECULE
*****
 38 42 0 0 0
SMALL
GASTEIGER

@<TRIPOS>ATOM
      1 C         139.7618  140.6599  156.6449 C.3     1  UNL1        0.1024
      2 C         138.8764  141.0411  155.4958 C.3     1  UNL1        0.0643
      3 C         137.7979  142.0657  155.6877 C.3     1  UNL1        0.1368
      4 C         136.6477  142.9769  155.3764 C.3     1  UNL1        0.0437
      5 C         137.5914  141.7387  154.2384 C.3     1  UNL1        0.0437
      6 O         137.6049  142.7092  157.0289 O.3     1  UNL1       -0.4676
      7 C         138.4903  142.3280  158.1780 C.ar    1  UNL1        0.2219
      8 N         138.2972  142.9715  159.5192 N.ar    1  UNL1       -0.2119
      9 C         139.1827  142.5903  160.6684 C.ar    1  UNL1        0.0851
     10 C         140.2612  141.5656  160.4764 C.ar    1  UNL1        0.0177
     11 C         140.4542  140.9221  159.1353 C.ar    1  UNL1        0.0034
     12 C         139.5687  141.3033  157.9861 C.ar    1  UNL1        0.0488
     13 C         138.9896  143.2338  162.0095 C.ar    1  UNL1        0.0284
     14 C         139.7216  144.4990  162.3466 C.ar    1  UNL1        0.0032
     15 C         139.5285  145.1425  163.6878 C.ar    1  UNL1        0.0115
     16 C         138.6036  144.5208  164.6918 C.ar    1  UNL1        0.0585
     17 CL        138.4105  145.1643  166.0329 Cl      1  UNL1       -0.0822
     18 C         137.8717  143.2556  164.3546 C.ar    1  UNL1        0.0228
     19 C         138.0647  142.6122  163.0135 C.ar    1  UNL1        0.0599
     20 CL        137.3328  141.3470  162.6763 Cl      1  UNL1       -0.0822
     21 C         141.1466  141.1844  161.6256 C.ar    1  UNL1        0.0015
     22 C         140.7667  140.0399  162.5177 C.ar    1  UNL1        0.0009
     23 C         141.6522  139.6587  163.6669 C.ar    1  UNL1        0.0114
     24 C         142.9175  140.4220  163.9240 C.ar    1  UNL1        0.0577
     25 CL        143.8030  140.0408  165.0732 Cl      1  UNL1       -0.0822
     26 C         143.2975  141.5665  163.0320 C.ar    1  UNL1        0.0114
     27 C         142.4121  141.9477  161.8828 C.ar    1  UNL1        0.0009
     28 C         140.6007  138.2098  156.8545 C.2     1  UNL1        0.2618
     29 O         139.2825  137.8093  157.4479 O.2     1  UNL1       -0.2688
     30 N         140.8403  139.6351  156.4530 N.am    1  UNL1       -0.2974
     31 H         141.7054  139.8980  156.0636 H       1  UNL1        0.1500
     32 C         143.3203  134.0592  155.0499 C.3     1  UNL1        0.0495
     33 C         142.9292  135.2773  155.8331 C.2     1  UNL1        0.0641
     34 N         143.7482  135.9391  156.9014 N.2     1  UNL1       -0.1565
     35 N         142.9756  137.1182  157.4140 N.2     1  UNL1       -0.1480
     36 C         141.6791  137.1851  156.6626 C.2     1  UNL1        0.1384
     37 C         141.6504  136.0474  155.6855 C.3     1  UNL1        0.0844
     38 C         140.5383  135.7346  154.7288 C.3     1  UNL1        0.0126
@<TRIPOS>BOND
     1    32    33    1
     2    33    34    2
     3    34    35    1
     4    35    36    2
     5    36    28    1
     6    28    29    2
     7    28    30   am
     8     1    30    1
     9     1     2    1
    10     2     3    1
    11     3     4    1
    12     3     5    1
    13     3     6    1
    14     6     7    1
    15     7     8   ar
    16     8     9   ar
    17     9    13    1
    18    13    14   ar
    19    14    15   ar
    20    15    16   ar
    21    16    17    1
    22    16    18   ar
    23    18    19   ar
    24    19    20    1
    25     9    10   ar
    26    10    21    1
    27    21    22   ar
    28    22    23   ar
    29    23    24   ar
    30    24    25    1
    31    24    26   ar
    32    26    27   ar
    33    10    11   ar
    34    11    12   ar
    35    36    37    1
    36    37    38    1
    37    37    33    1
    38    12     1    1
    39    12     7   ar
    40    19    13   ar
    41    27    21   ar
    42    30    31    1
@<TRIPOS>MOLECULE
*****
 38 42 0 0 0
SMALL
GASTEIGER

@<TRIPOS>ATOM
      1 C         141.8098  139.8391  156.9677 C.3     1  UNL1        0.1024
      2 C         141.1860  139.0927  155.8259 C.3     1  UNL1        0.0643
      3 C         140.0226  138.1790  156.0735 C.3     1  UNL1        0.1368
      4 C         138.9127  137.2060  155.8064 C.3     1  UNL1        0.0437
      5 C         140.1768  138.0084  154.5913 C.3     1  UNL1        0.0437
      6 O         139.4828  138.0116  157.4630 O.3     1  UNL1       -0.4676
      7 C         140.1066  138.7580  158.6048 C.ar    1  UNL1        0.2219
      8 N         139.5668  138.5907  159.9943 N.ar    1  UNL1       -0.2119
      9 C         140.1906  139.3371  161.1361 C.ar    1  UNL1        0.0851
     10 C         141.3541  140.2509  160.8885 C.ar    1  UNL1        0.0177
     11 C         141.8938  140.4182  159.4990 C.ar    1  UNL1        0.0034
     12 C         141.2700  139.6718  158.3572 C.ar    1  UNL1        0.0488
     13 C         139.6508  139.1697  162.5256 C.ar    1  UNL1        0.0284
     14 C         138.5776  140.0889  163.0291 C.ar    1  UNL1        0.0032
     15 C         138.0378  139.9215  164.4186 C.ar    1  UNL1        0.0115
     16 C         138.5713  138.8350  165.3046 C.ar    1  UNL1        0.0585
     17 CL        138.0316  138.6677  166.6941 Cl      1  UNL1       -0.0822
     18 C         139.6445  137.9160  164.8011 C.ar    1  UNL1        0.0228
     19 C         140.1843  138.0833  163.4116 C.ar    1  UNL1        0.0599
     20 CL        141.2575  137.1642  162.9082 Cl      1  UNL1       -0.0822
     21 C         141.9778  140.9973  162.0303 C.ar    1  UNL1        0.0015
     22 C         141.4783  142.3638  162.3952 C.ar    1  UNL1        0.0009
     23 C         142.1021  143.1102  163.5371 C.ar    1  UNL1        0.0114
     24 C         143.2253  142.4900  164.3141 C.ar    1  UNL1        0.0577
     25 CL        143.8490  143.2364  165.4559 Cl      1  UNL1       -0.0822
     26 C         143.7248  141.1235  163.9492 C.ar    1  UNL1        0.0114
     27 C         143.1011  140.3772  162.8074 C.ar    1  UNL1        0.0009
     28 C         144.3161  140.1806  156.3747 C.2     1  UNL1        0.2618
     29 O         144.4955  138.6946  156.2770 O.2     1  UNL1       -0.2688
     30 N         142.9733  140.7529  156.7201 N.am    1  UNL1       -0.2974
     31 H         142.8556  141.7283  156.7842 H       1  UNL1        0.1500
     32 C         148.2679  142.7465  153.9913 C.3     1  UNL1        0.0495
     33 C         147.2960  142.2737  155.0316 C.2     1  UNL1        0.0641
     34 N         147.2442  142.7271  156.4605 N.2     1  UNL1       -0.1565
     35 N         146.1216  141.9982  157.1376 N.2     1  UNL1       -0.1480
     36 C         145.4796  141.0944  156.1271 C.2     1  UNL1        0.1384
     37 C         146.2055  141.2646  154.8255 C.3     1  UNL1        0.0844
     38 C         145.8954  140.5511  153.5431 C.3     1  UNL1        0.0126
@<TRIPOS>BOND
     1    32    33    1
     2    33    34    2
     3    34    35    1
     4    35    36    2
     5    36    28    1
     6    28    29    2
     7    28    30   am
     8     1    30    1
     9     1     2    1
    10     2     3    1
    11     3     4    1
    12     3     5    1
    13     3     6    1
    14     6     7    1
    15     7     8   ar
    16     8     9   ar
    17     9    13    1
    18    13    14   ar
    19    14    15   ar
    20    15    16   ar
    21    16    17    1
    22    16    18   ar
    23    18    19   ar
    24    19    20    1
    25     9    10   ar
    26    10    21    1
    27    21    22   ar
    28    22    23   ar
    29    23    24   ar
    30    24    25    1
    31    24    26   ar
    32    26    27   ar
    33    10    11   ar
    34    11    12   ar
    35    36    37    1
    36    37    38    1
    37    37    33    1
    38    12     1    1
    39    12     7   ar
    40    19    13   ar
    41    27    21   ar
    42    30    31    1
@<TRIPOS>MOLECULE
*****
 38 42 0 0 0
SMALL
GASTEIGER

@<TRIPOS>ATOM
      1 C         140.8923  138.5345  156.4640 C.3     1  UNL1        0.1024
      2 C         141.6730  137.7074  155.4860 C.3     1  UNL1        0.0643
      3 C         142.8154  136.8609  155.9637 C.3     1  UNL1        0.1368
      4 C         143.9717  135.9060  155.9320 C.3     1  UNL1        0.0437
      5 C         142.8553  136.5486  154.4971 C.3     1  UNL1        0.0437
      6 O         143.1772  136.8415  157.4193 O.3     1  UNL1       -0.4676
      7 C         142.3965  137.6686  158.3972 C.ar    1  UNL1        0.2219
      8 N         142.7583  137.6492  159.8528 N.ar    1  UNL1       -0.2119
      9 C         141.9777  138.4763  160.8307 C.ar    1  UNL1        0.0851
     10 C         140.8351  139.3229  160.3531 C.ar    1  UNL1        0.0177
     11 C         140.4733  139.3423  158.8975 C.ar    1  UNL1        0.0034
     12 C         141.2541  138.5151  157.9196 C.ar    1  UNL1        0.0488
     13 C         142.3395  138.4569  162.2863 C.ar    1  UNL1        0.0284
     14 C         141.5400  137.6273  163.2469 C.ar    1  UNL1        0.0032
     15 C         141.9018  137.6079  164.7025 C.ar    1  UNL1        0.0115
     16 C         143.0631  138.4181  165.1975 C.ar    1  UNL1        0.0585
     17 CL        143.4249  138.3987  166.6531 Cl      1  UNL1       -0.0822
     18 C         143.8625  139.2477  164.2370 C.ar    1  UNL1        0.0228
     19 C         143.5007  139.2671  162.7814 C.ar    1  UNL1        0.0599
     20 CL        144.3001  140.0966  161.8209 Cl      1  UNL1       -0.0822
     21 C         140.0545  140.1499  161.3311 C.ar    1  UNL1        0.0015
     22 C         140.5638  141.4978  161.7481 C.ar    1  UNL1        0.0009
     23 C         139.7830  142.3249  162.7261 C.ar    1  UNL1        0.0114
     24 C         138.4930  141.8041  163.2870 C.ar    1  UNL1        0.0577
     25 CL        137.7124  142.6312  164.2650 Cl      1  UNL1       -0.0822
     26 C         137.9837  140.4563  162.8700 C.ar    1  UNL1        0.0114
     27 C         138.7644  139.6292  161.8921 C.ar    1  UNL1        0.0009
     28 C         138.4605  138.7361  155.5719 C.2     1  UNL1        0.2618
     29 O         138.3137  137.2446  155.6351 O.2     1  UNL1       -0.2688
     30 N         139.7498  139.3811  155.9864 N.am    1  UNL1       -0.2974
     31 H         139.8461  140.3600  155.9449 H       1  UNL1        0.1500
     32 C         135.1217  141.3557  152.4302 C.3     1  UNL1        0.0495
     33 C         135.7833  140.7867  153.6502 C.2     1  UNL1        0.0641
     34 N         135.3363  140.9837  155.0685 N.2     1  UNL1       -0.1565
     35 N         136.2848  140.2395  155.9610 N.2     1  UNL1       -0.1480
     36 C         137.3180  139.5826  155.0944 C.2     1  UNL1        0.1384
     37 C         137.0080  139.9207  153.6662 C.3     1  UNL1        0.0844
     38 C         137.7861  139.4718  152.4650 C.3     1  UNL1        0.0126
@<TRIPOS>BOND
     1    32    33    1
     2    33    34    2
     3    34    35    1
     4    35    36    2
     5    36    28    1
     6    28    29    2
     7    28    30   am
     8     1    30    1
     9     1     2    1
    10     2     3    1
    11     3     4    1
    12     3     5    1
    13     3     6    1
    14     6     7    1
    15     7     8   ar
    16     8     9   ar
    17     9    13    1
    18    13    14   ar
    19    14    15   ar
    20    15    16   ar
    21    16    17    1
    22    16    18   ar
    23    18    19   ar
    24    19    20    1
    25     9    10   ar
    26    10    21    1
    27    21    22   ar
    28    22    23   ar
    29    23    24   ar
    30    24    25    1
    31    24    26   ar
    32    26    27   ar
    33    10    11   ar
    34    11    12   ar
    35    36    37    1
    36    37    38    1
    37    37    33    1
    38    12     1    1
    39    12     7   ar
    40    19    13   ar
    41    27    21   ar
    42    30    31    1
@<TRIPOS>MOLECULE
*****
 38 42 0 0 0
SMALL
GASTEIGER

@<TRIPOS>ATOM
      1 C         139.7767  140.8486  156.7870 C.3     1  UNL1        0.1024
      2 C         138.6169  141.0059  155.8489 C.3     1  UNL1        0.0643
      3 C         137.2147  140.8440  156.3562 C.3     1  UNL1        0.1368
      4 C         135.7158  140.7860  156.3624 C.3     1  UNL1        0.0437
      5 C         136.9365  141.1430  154.9129 C.3     1  UNL1        0.0437
      6 O         136.9722  140.5249  157.8017 O.3     1  UNL1       -0.4676
      7 C         138.1321  140.3676  158.7398 C.ar    1  UNL1        0.2219
      8 N         137.8896  140.0485  160.1853 N.ar    1  UNL1       -0.2119
      9 C         139.0494  139.8912  161.1234 C.ar    1  UNL1        0.0851
     10 C         140.4518  140.0531  160.6160 C.ar    1  UNL1        0.0177
     11 C         140.6942  140.3722  159.1705 C.ar    1  UNL1        0.0034
     12 C         139.5343  140.5295  158.2324 C.ar    1  UNL1        0.0488
     13 C         138.8070  139.5720  162.5688 C.ar    1  UNL1        0.0284
     14 C         138.9350  138.1593  163.0567 C.ar    1  UNL1        0.0032
     15 C         138.6926  137.8402  164.5021 C.ar    1  UNL1        0.0115
     16 C         138.3221  138.9338  165.4598 C.ar    1  UNL1        0.0585
     17 CL        138.0797  138.6146  166.9052 Cl      1  UNL1       -0.0822
     18 C         138.1941  140.3464  164.9719 C.ar    1  UNL1        0.0228
     19 C         138.4366  140.6655  163.5264 C.ar    1  UNL1        0.0599
     20 CL        138.3086  142.0781  163.0386 Cl      1  UNL1       -0.0822
     21 C         141.6116  139.8958  161.5541 C.ar    1  UNL1        0.0015
     22 C         142.0144  141.0326  162.4460 C.ar    1  UNL1        0.0009
     23 C         143.1742  140.8753  163.3841 C.ar    1  UNL1        0.0114
     24 C         143.9313  139.5812  163.4303 C.ar    1  UNL1        0.0577
     25 CL        145.0911  139.4239  164.3684 Cl      1  UNL1       -0.0822
     26 C         143.5285  138.4444  162.5384 C.ar    1  UNL1        0.0114
     27 C         142.3687  138.6017  161.6003 C.ar    1  UNL1        0.0009
     28 C         141.8555  142.3470  156.3583 C.2     1  UNL1        0.2618
     29 O         141.1296  143.5216  156.9444 O.2     1  UNL1       -0.2688
     30 N         141.1791  141.0105  156.2796 N.am    1  UNL1       -0.2974
     31 H         141.6554  140.2396  155.8950 H       1  UNL1        0.1500
     32 C         147.1023  141.9768  155.8949 C.3     1  UNL1        0.0495
     33 C         145.6694  142.3388  155.6380 C.2     1  UNL1        0.0641
     34 N         145.1619  143.1774  154.5026 N.2     1  UNL1       -0.1565
     35 N         143.6714  143.2826  154.6343 N.2     1  UNL1       -0.1480
     36 C         143.2577  142.5089  155.8510 C.2     1  UNL1        0.1384
     37 C         144.4926  141.9256  156.4713 C.3     1  UNL1        0.0844
     38 C         144.5421  141.0780  157.7079 C.3     1  UNL1        0.0126
@<TRIPOS>BOND
     1    32    33    1
     2    33    34    2
     3    34    35    1
     4    35    36    2
     5    36    28    1
     6    28    29    2
     7    28    30   am
     8     1    30    1
     9     1     2    1
    10     2     3    1
    11     3     4    1
    12     3     5    1
    13     3     6    1
    14     6     7    1
    15     7     8   ar
    16     8     9   ar
    17     9    13    1
    18    13    14   ar
    19    14    15   ar
    20    15    16   ar
    21    16    17    1
    22    16    18   ar
    23    18    19   ar
    24    19    20    1
    25     9    10   ar
    26    10    21    1
    27    21    22   ar
    28    22    23   ar
    29    23    24   ar
    30    24    25    1
    31    24    26   ar
    32    26    27   ar
    33    10    11   ar
    34    11    12   ar
    35    36    37    1
    36    37    38    1
    37    37    33    1
    38    12     1    1
    39    12     7   ar
    40    19    13   ar
    41    27    21   ar
    42    30    31    1
@<TRIPOS>MOLECULE
*****
 38 42 0 0 0
SMALL
GASTEIGER

@<TRIPOS>ATOM
      1 C         141.3755  142.1066  156.4320 C.3     1  UNL1        0.1024
      2 C         141.4424  143.1059  155.3153 C.3     1  UNL1        0.0643
      3 C         141.0709  144.5372  155.5666 C.3     1  UNL1        0.1368
      4 C         140.8215  145.9943  155.3121 C.3     1  UNL1        0.0437
      5 C         141.4227  144.6113  154.1103 C.3     1  UNL1        0.0437
      6 O         140.6325  144.9693  156.9345 O.3     1  UNL1       -0.4676
      7 C         140.5656  143.9700  158.0511 C.ar    1  UNL1        0.2219
      8 N         140.1271  144.4021  159.4190 N.ar    1  UNL1       -0.2119
      9 C         140.0603  143.4028  160.5356 C.ar    1  UNL1        0.0851
     10 C         140.4318  141.9714  160.2844 C.ar    1  UNL1        0.0177
     11 C         140.8702  141.5393  158.9165 C.ar    1  UNL1        0.0034
     12 C         140.9371  142.5387  157.7999 C.ar    1  UNL1        0.0488
     13 C         139.6218  143.8348  161.9035 C.ar    1  UNL1        0.0284
     14 C         138.1876  143.6808  162.3149 C.ar    1  UNL1        0.0032
     15 C         137.7491  144.1128  163.6828 C.ar    1  UNL1        0.0115
     16 C         138.7450  144.6990  164.6393 C.ar    1  UNL1        0.0585
     17 CL        138.3066  145.1310  166.0072 Cl      1  UNL1       -0.0822
     18 C         140.1792  144.8530  164.2279 C.ar    1  UNL1        0.0228
     19 C         140.6176  144.4210  162.8600 C.ar    1  UNL1        0.0599
     20 CL        142.0518  144.5750  162.4486 Cl      1  UNL1       -0.0822
     21 C         140.3649  140.9721  161.4010 C.ar    1  UNL1        0.0015
     22 C         141.5325  140.8034  162.3275 C.ar    1  UNL1        0.0009
     23 C         141.4655  139.8041  163.4442 C.ar    1  UNL1        0.0114
     24 C         140.2311  138.9734  163.6343 C.ar    1  UNL1        0.0577
     25 CL        140.1642  137.9741  164.7510 Cl      1  UNL1       -0.0822
     26 C         139.0636  139.1421  162.7078 C.ar    1  UNL1        0.0114
     27 C         139.1305  140.1414  161.5912 C.ar    1  UNL1        0.0009
     28 C         143.1338  140.1948  156.4908 C.2     1  UNL1        0.2618
     29 O         144.1490  141.1458  157.0522 O.2     1  UNL1       -0.2688
     30 N         141.7471  140.6752  156.1807 N.am    1  UNL1       -0.2974
     31 H         141.0808  140.0510  155.8123 H       1  UNL1        0.1500
     32 C         143.0041  134.9173  156.3846 C.3     1  UNL1        0.0495
     33 C         143.4458  136.3376  156.1908 C.2     1  UNL1        0.0641
     34 N         144.7086  136.7839  155.5154 N.2     1  UNL1       -0.1565
     35 N         144.7454  138.2832  155.5456 N.2     1  UNL1       -0.1480
     36 C         143.5054  138.7634  156.2396 C.2     1  UNL1        0.1384
     37 C         142.7022  137.5610  156.6384 C.3     1  UNL1        0.0844
     38 C         141.3864  137.5788  157.3584 C.3     1  UNL1        0.0126
@<TRIPOS>BOND
     1    32    33    1
     2    33    34    2
     3    34    35    1
     4    35    36    2
     5    36    28    1
     6    28    29    2
     7    28    30   am
     8     1    30    1
     9     1     2    1
    10     2     3    1
    11     3     4    1
    12     3     5    1
    13     3     6    1
    14     6     7    1
    15     7     8   ar
    16     8     9   ar
    17     9    13    1
    18    13    14   ar
    19    14    15   ar
    20    15    16   ar
    21    16    17    1
    22    16    18   ar
    23    18    19   ar
    24    19    20    1
    25     9    10   ar
    26    10    21    1
    27    21    22   ar
    28    22    23   ar
    29    23    24   ar
    30    24    25    1
    31    24    26   ar
    32    26    27   ar
    33    10    11   ar
    34    11    12   ar
    35    36    37    1
    36    37    38    1
    37    37    33    1
    38    12     1    1
    39    12     7   ar
    40    19    13   ar
    41    27    21   ar
    42    30    31    1
