@<TRIPOS>MOLECULE
*****
 31 34 0 0 0
SMALL
GASTEIGER

@<TRIPOS>ATOM
      1 C         143.1478  142.3002  166.7252 C.3     1  UNL1        0.0474
      2 C         142.4198  142.0763  168.0174 C.3     1  UNL1        0.1720
      3 O         142.8317  142.5958  169.3629 O.3     1  UNL1       -0.4506
      4 C         141.8186  142.1341  170.3681 C.2     1  UNL1        0.3414
      5 O         141.8398  142.4261  171.8393 O.2     1  UNL1       -0.2475
      6 C         140.7806  141.3291  169.6438 C.3     1  UNL1        0.1859
      7 O         140.5377  141.4519  171.1189 O.3     1  UNL1       -0.3761
      8 C         139.5450  140.6240  170.1195 C.3     1  UNL1        0.1044
      9 C         138.6811  139.8833  169.1424 C.3     1  UNL1        0.2669
     10 F         137.5519  139.0549  168.6050 F       1  UNL1       -0.2042
     11 F         137.9173  139.6313  170.4085 F       1  UNL1       -0.2042
     12 C         139.0527  139.8475  167.6896 C.3     1  UNL1        0.0656
     13 C         138.1887  139.1067  166.7124 C.3     1  UNL1        0.0060
     14 C         140.2883  140.5526  167.2139 C.3     1  UNL1        0.0336
     15 C         141.1522  141.2934  168.1910 C.3     1  UNL1        0.0795
     16 H         139.7267  140.9745  171.3539 H       1  UNL1        0.2109
     17 C         140.6598  140.5168  165.7610 C.2     1  UNL1       -0.0245
     18 C         141.4097  139.3416  165.2074 C.2     1  UNL1        0.0145
     19 C         141.7812  139.3060  163.7546 C.ar    1  UNL1        0.0810
     20 C         141.6161  140.5331  162.9079 C.ar    1  UNL1        0.0191
     21 C         141.9876  140.4975  161.4550 C.ar    1  UNL1        0.0031
     22 C         142.5242  139.2347  160.8489 C.ar    1  UNL1        0.0193
     23 C         142.6893  138.0075  161.6956 C.ar    1  UNL1        0.0988
     24 N         142.3178  138.0432  163.1485 N.ar    1  UNL1       -0.2438
     25 C         142.8957  139.1990  159.3960 C.ar    1  UNL1        0.0037
     26 C         143.6727  140.3313  158.7927 C.ar    1  UNL1        0.0002
     27 C         144.0442  140.2956  157.3398 C.ar    1  UNL1        0.0023
     28 C         143.6387  139.1276  156.4905 C.ar    1  UNL1        0.0296
     29 C         142.8617  137.9953  157.0938 C.ar    1  UNL1        0.1401
     30 F         142.4562  136.8274  156.2445 F       1  UNL1       -0.2042
     31 C         142.4902  138.0310  158.5467 C.ar    1  UNL1        0.0297
@<TRIPOS>BOND
     1     2     1    1
     2     2     3    1
     3     3     4    1
     4     4     5    2
     5     4     6    1
     6     6     7    1
     7     6     8    1
     8     8     9    1
     9     9    10    1
    10     9    11    1
    11     9    12    1
    12    12    13    1
    13    12    14    1
    14    14    17    1
    15    17    18    2
    16    18    19    1
    17    19    20   ar
    18    20    21   ar
    19    21    22   ar
    20    22    25    1
    21    25    26   ar
    22    26    27   ar
    23    27    28   ar
    24    28    29   ar
    25    29    30    1
    26    29    31   ar
    27    22    23   ar
    28    23    24   ar
    29    14    15    1
    30    15     2    1
    31    15     6    1
    32    24    19   ar
    33    31    25   ar
    34     7    16    1
@<TRIPOS>MOLECULE
*****
 31 34 0 0 0
SMALL
GASTEIGER

@<TRIPOS>ATOM
      1 C         139.9737  143.6448  167.2880 C.3     1  UNL1        0.0474
      2 C         140.3369  142.8573  168.5119 C.3     1  UNL1        0.1720
      3 O         139.9670  143.2020  169.9241 O.3     1  UNL1       -0.4506
      4 C         140.5352  142.1445  170.8234 C.2     1  UNL1        0.3414
      5 O         140.4052  142.0941  172.3169 O.2     1  UNL1       -0.2475
      6 C         141.2564  141.1462  169.9670 C.3     1  UNL1        0.1859
      7 O         141.2949  140.8328  171.4334 O.3     1  UNL1       -0.3761
      8 C         142.0088  139.8929  170.3035 C.3     1  UNL1        0.1044
      9 C         142.6386  139.0802  169.2113 C.3     1  UNL1        0.2669
     10 F         143.4033  137.9820  168.5336 F       1  UNL1       -0.2042
     11 F         143.0268  138.2583  170.4045 F       1  UNL1       -0.2042
     12 C         142.5160  139.5207  167.7828 C.3     1  UNL1        0.0656
     13 C         143.1459  138.7080  166.6906 C.3     1  UNL1        0.0060
     14 C         141.7636  140.7740  167.4463 C.3     1  UNL1        0.0336
     15 C         141.1337  141.5867  168.5384 C.3     1  UNL1        0.0795
     16 H         141.7949  140.0139  171.5760 H       1  UNL1        0.2109
     17 C         141.6410  141.2145  166.0176 C.2     1  UNL1       -0.0245
     18 C         142.6135  142.2070  165.4527 C.2     1  UNL1        0.0145
     19 C         142.4909  142.6474  164.0241 C.ar    1  UNL1        0.0810
     20 C         142.0640  144.0496  163.7055 C.ar    1  UNL1        0.0191
     21 C         141.9414  144.4901  162.2769 C.ar    1  UNL1        0.0031
     22 C         142.2456  143.5283  161.1668 C.ar    1  UNL1        0.0193
     23 C         142.6725  142.1260  161.4853 C.ar    1  UNL1        0.0988
     24 N         142.7952  141.6856  162.9140 N.ar    1  UNL1       -0.2438
     25 C         142.1230  143.9687  159.7381 C.ar    1  UNL1        0.0037
     26 C         142.9290  143.2882  158.6718 C.ar    1  UNL1        0.0002
     27 C         142.8063  143.7286  157.2432 C.ar    1  UNL1        0.0023
     28 C         141.8777  144.8495  156.8810 C.ar    1  UNL1        0.0296
     29 C         141.0718  145.5301  157.9473 C.ar    1  UNL1        0.1401
     30 F         140.1432  146.6510  157.5851 F       1  UNL1       -0.2042
     31 C         141.1944  145.0897  159.3759 C.ar    1  UNL1        0.0297
@<TRIPOS>BOND
     1     2     1    1
     2     2     3    1
     3     3     4    1
     4     4     5    2
     5     4     6    1
     6     6     7    1
     7     6     8    1
     8     8     9    1
     9     9    10    1
    10     9    11    1
    11     9    12    1
    12    12    13    1
    13    12    14    1
    14    14    17    1
    15    17    18    2
    16    18    19    1
    17    19    20   ar
    18    20    21   ar
    19    21    22   ar
    20    22    25    1
    21    25    26   ar
    22    26    27   ar
    23    27    28   ar
    24    28    29   ar
    25    29    30    1
    26    29    31   ar
    27    22    23   ar
    28    23    24   ar
    29    14    15    1
    30    15     2    1
    31    15     6    1
    32    24    19   ar
    33    31    25   ar
    34     7    16    1
@<TRIPOS>MOLECULE
*****
 31 34 0 0 0
SMALL
GASTEIGER

@<TRIPOS>ATOM
      1 C         143.0991  142.4770  167.2966 C.3     1  UNL1        0.0474
      2 C         142.1544  142.1372  168.4110 C.3     1  UNL1        0.1720
      3 O         142.2662  142.5997  169.8336 O.3     1  UNL1       -0.4506
      4 C         141.1129  142.0235  170.6004 C.2     1  UNL1        0.3414
      5 O         140.8333  142.2298  172.0596 O.2     1  UNL1       -0.2475
      6 C         140.2883  141.2049  169.6517 C.3     1  UNL1        0.1859
      7 O         139.7606  141.2274  171.0557 O.3     1  UNL1       -0.3761
      8 C         139.0344  140.4046  169.8452 C.3     1  UNL1        0.1044
      9 C         138.4243  139.6746  168.6855 C.3     1  UNL1        0.2669
     10 F         137.4762  138.8167  167.9013 F       1  UNL1       -0.2042
     11 F         137.4513  139.3064  169.7662 F       1  UNL1       -0.2042
     12 C         139.0679  139.7448  167.3326 C.3     1  UNL1        0.0656
     13 C         138.4577  139.0147  166.1729 C.3     1  UNL1        0.0060
     14 C         140.3218  140.5452  167.1391 C.3     1  UNL1        0.0336
     15 C         140.9319  141.2752  168.2987 C.3     1  UNL1        0.0795
     16 H         138.9533  140.6921  171.1063 H       1  UNL1        0.2109
     17 C         140.9654  140.6154  165.7859 C.2     1  UNL1       -0.0245
     18 C         140.5608  141.6871  164.8176 C.2     1  UNL1        0.0145
     19 C         141.2044  141.7572  163.4646 C.ar    1  UNL1        0.0810
     20 C         141.3866  140.5076  162.6550 C.ar    1  UNL1        0.0191
     21 C         142.0303  140.5777  161.3019 C.ar    1  UNL1        0.0031
     22 C         142.4918  141.8973  160.7584 C.ar    1  UNL1        0.0193
     23 C         142.3096  143.1470  161.5680 C.ar    1  UNL1        0.0988
     24 N         141.6659  143.0769  162.9210 N.ar    1  UNL1       -0.2438
     25 C         143.1354  141.9675  159.4053 C.ar    1  UNL1        0.0037
     26 C         142.3525  141.5924  158.1821 C.ar    1  UNL1        0.0002
     27 C         142.9962  141.6626  156.8290 C.ar    1  UNL1        0.0023
     28 C         144.4227  142.1077  156.6993 C.ar    1  UNL1        0.0296
     29 C         145.2056  142.4828  157.9225 C.ar    1  UNL1        0.1401
     30 F         146.6321  142.9279  157.7927 F       1  UNL1       -0.2042
     31 C         144.5620  142.4126  159.2755 C.ar    1  UNL1        0.0297
@<TRIPOS>BOND
     1     2     1    1
     2     2     3    1
     3     3     4    1
     4     4     5    2
     5     4     6    1
     6     6     7    1
     7     6     8    1
     8     8     9    1
     9     9    10    1
    10     9    11    1
    11     9    12    1
    12    12    13    1
    13    12    14    1
    14    14    17    1
    15    17    18    2
    16    18    19    1
    17    19    20   ar
    18    20    21   ar
    19    21    22   ar
    20    22    25    1
    21    25    26   ar
    22    26    27   ar
    23    27    28   ar
    24    28    29   ar
    25    29    30    1
    26    29    31   ar
    27    22    23   ar
    28    23    24   ar
    29    14    15    1
    30    15     2    1
    31    15     6    1
    32    24    19   ar
    33    31    25   ar
    34     7    16    1
@<TRIPOS>MOLECULE
*****
 31 34 0 0 0
SMALL
GASTEIGER

@<TRIPOS>ATOM
      1 C         143.4063  141.5444  165.7660 C.3     1  UNL1        0.0474
      2 C         142.7902  141.7833  167.1126 C.3     1  UNL1        0.1720
      3 O         143.3519  142.6540  168.1973 O.3     1  UNL1       -0.4506
      4 C         142.4131  142.6023  169.3660 C.2     1  UNL1        0.3414
      5 O         142.5860  143.3262  170.6684 O.2     1  UNL1       -0.2475
      6 C         141.2712  141.6997  169.0037 C.3     1  UNL1        0.1859
      7 O         141.1729  142.2851  170.3813 O.3     1  UNL1       -0.3761
      8 C         140.0493  141.2733  169.7620 C.3     1  UNL1        0.1044
      9 C         139.0604  140.3407  169.1277 C.3     1  UNL1        0.2669
     10 F         137.8438  139.4801  168.9564 F       1  UNL1       -0.2042
     11 F         138.4048  140.5479  170.4608 F       1  UNL1       -0.2042
     12 C         139.2934  139.8346  167.7351 C.3     1  UNL1        0.0656
     13 C         138.3045  138.9019  167.1007 C.3     1  UNL1        0.0060
     14 C         140.5154  140.2610  166.9767 C.3     1  UNL1        0.0336
     15 C         141.5043  141.1936  167.6111 C.3     1  UNL1        0.0795
     16 H         140.3629  141.9678  170.8104 H       1  UNL1        0.2109
     17 C         140.7484  139.7548  165.5840 C.2     1  UNL1       -0.0245
     18 C         140.0879  140.4316  164.4197 C.2     1  UNL1        0.0145
     19 C         140.3209  139.9253  163.0271 C.ar    1  UNL1        0.0810
     20 C         141.4938  140.4220  162.2350 C.ar    1  UNL1        0.0191
     21 C         141.7270  139.9158  160.8423 C.ar    1  UNL1        0.0031
     22 C         140.7871  138.9128  160.2418 C.ar    1  UNL1        0.0193
     23 C         139.6141  138.4161  161.0340 C.ar    1  UNL1        0.0988
     24 N         139.3810  138.9223  162.4266 N.ar    1  UNL1       -0.2438
     25 C         141.0201  138.4066  158.8492 C.ar    1  UNL1        0.0037
     26 C         142.4198  138.2349  158.3381 C.ar    1  UNL1        0.0002
     27 C         142.6529  137.7287  156.9455 C.ar    1  UNL1        0.0023
     28 C         141.4862  137.3941  156.0640 C.ar    1  UNL1        0.0296
     29 C         140.0865  137.5657  156.5751 C.ar    1  UNL1        0.1401
     30 F         138.9199  137.2311  155.6937 F       1  UNL1       -0.2042
     31 C         139.8535  138.0720  157.9678 C.ar    1  UNL1        0.0297
@<TRIPOS>BOND
     1     2     1    1
     2     2     3    1
     3     3     4    1
     4     4     5    2
     5     4     6    1
     6     6     7    1
     7     6     8    1
     8     8     9    1
     9     9    10    1
    10     9    11    1
    11     9    12    1
    12    12    13    1
    13    12    14    1
    14    14    17    1
    15    17    18    2
    16    18    19    1
    17    19    20   ar
    18    20    21   ar
    19    21    22   ar
    20    22    25    1
    21    25    26   ar
    22    26    27   ar
    23    27    28   ar
    24    28    29   ar
    25    29    30    1
    26    29    31   ar
    27    22    23   ar
    28    23    24   ar
    29    14    15    1
    30    15     2    1
    31    15     6    1
    32    24    19   ar
    33    31    25   ar
    34     7    16    1
@<TRIPOS>MOLECULE
*****
 31 34 0 0 0
SMALL
GASTEIGER

@<TRIPOS>ATOM
      1 C         138.6355  138.9781  165.5885 C.3     1  UNL1        0.0474
      2 C         138.8143  139.4200  167.0107 C.3     1  UNL1        0.1720
      3 O         137.9170  139.0726  168.1614 O.3     1  UNL1       -0.4506
      4 C         138.4699  139.7248  169.3938 C.2     1  UNL1        0.3414
      5 O         137.8862  139.6412  170.7731 O.2     1  UNL1       -0.2475
      6 C         139.7090  140.4754  169.0048 C.3     1  UNL1        0.1859
      7 O         139.3683  140.5739  170.4623 O.3     1  UNL1       -0.3761
      8 C         140.6710  141.3061  169.8014 C.3     1  UNL1        0.1044
      9 C         141.8458  141.9483  169.1252 C.3     1  UNL1        0.2669
     10 F         143.0977  142.7531  168.9379 F       1  UNL1       -0.2042
     11 F         142.0678  142.4162  170.5329 F       1  UNL1       -0.2042
     12 C         142.0586  141.7599  167.6524 C.3     1  UNL1        0.0656
     13 C         143.2335  142.4022  166.9762 C.3     1  UNL1        0.0060
     14 C         141.0966  140.9292  166.8557 C.3     1  UNL1        0.0336
     15 C         139.9218  140.2870  167.5320 C.3     1  UNL1        0.0795
     16 H         140.0294  141.1227  170.9124 H       1  UNL1        0.2109
     17 C         141.3095  140.7409  165.3829 C.2     1  UNL1       -0.0245
     18 C         142.1215  139.5823  164.8846 C.2     1  UNL1        0.0145
     19 C         142.3343  139.3940  163.4117 C.ar    1  UNL1        0.0810
     20 C         141.3827  140.0130  162.4313 C.ar    1  UNL1        0.0191
     21 C         141.5955  139.8247  160.9584 C.ar    1  UNL1        0.0031
     22 C         142.7600  139.0175  160.4660 C.ar    1  UNL1        0.0193
     23 C         143.7116  138.3985  161.4465 C.ar    1  UNL1        0.0988
     24 N         143.4988  138.5868  162.9194 N.ar    1  UNL1       -0.2438
     25 C         142.9728  138.8292  158.9932 C.ar    1  UNL1        0.0037
     26 C         143.4955  139.9619  158.1602 C.ar    1  UNL1        0.0002
     27 C         143.7084  139.7736  156.6873 C.ar    1  UNL1        0.0023
     28 C         143.3985  138.4527  156.0476 C.ar    1  UNL1        0.0296
     29 C         142.8758  137.3201  156.8806 C.ar    1  UNL1        0.1401
     30 F         142.5660  135.9993  156.2408 F       1  UNL1       -0.2042
     31 C         142.6630  137.5084  158.3534 C.ar    1  UNL1        0.0297
@<TRIPOS>BOND
     1     2     1    1
     2     2     3    1
     3     3     4    1
     4     4     5    2
     5     4     6    1
     6     6     7    1
     7     6     8    1
     8     8     9    1
     9     9    10    1
    10     9    11    1
    11     9    12    1
    12    12    13    1
    13    12    14    1
    14    14    17    1
    15    17    18    2
    16    18    19    1
    17    19    20   ar
    18    20    21   ar
    19    21    22   ar
    20    22    25    1
    21    25    26   ar
    22    26    27   ar
    23    27    28   ar
    24    28    29   ar
    25    29    30    1
    26    29    31   ar
    27    22    23   ar
    28    23    24   ar
    29    14    15    1
    30    15     2    1
    31    15     6    1
    32    24    19   ar
    33    31    25   ar
    34     7    16    1
@<TRIPOS>MOLECULE
*****
 31 34 0 0 0
SMALL
GASTEIGER

@<TRIPOS>ATOM
      1 C         143.3031  138.3482  165.8968 C.3     1  UNL1        0.0474
      2 C         142.8786  139.1430  167.0960 C.3     1  UNL1        0.1720
      3 O         143.1952  138.8186  168.5259 O.3     1  UNL1       -0.4506
      4 C         142.5753  139.8769  169.3895 C.2     1  UNL1        0.3414
      5 O         142.6431  139.9447  170.8864 O.2     1  UNL1       -0.2475
      6 C         141.8756  140.8553  168.4934 C.3     1  UNL1        0.1859
      7 O         141.7724  141.1834  169.9534 O.3     1  UNL1       -0.3761
      8 C         141.0920  142.1007  168.7849 C.3     1  UNL1        0.1044
      9 C         140.4959  142.8925  167.6590 C.3     1  UNL1        0.2669
     10 F         139.7439  143.9721  166.9385 F       1  UNL1       -0.2042
     11 F         140.0472  143.7210  168.8262 F       1  UNL1       -0.2042
     12 C         140.6834  142.4390  166.2417 C.3     1  UNL1        0.0656
     13 C         140.0872  143.2309  165.1157 C.3     1  UNL1        0.0060
     14 C         141.4670  141.1936  165.9500 C.3     1  UNL1        0.0336
     15 C         142.0631  140.4018  167.0759 C.3     1  UNL1        0.0795
     16 H         141.2552  141.9962  170.0664 H       1  UNL1        0.2109
     17 C         141.6545  140.7401  164.5325 C.2     1  UNL1       -0.0245
     18 C         140.6000  139.9074  163.8658 C.2     1  UNL1        0.0145
     19 C         140.7875  139.4540  162.4483 C.ar    1  UNL1        0.0810
     20 C         142.1145  139.6343  161.7726 C.ar    1  UNL1        0.0191
     21 C         142.3021  139.1809  160.3551 C.ar    1  UNL1        0.0031
     22 C         141.1627  138.5472  159.6133 C.ar    1  UNL1        0.0193
     23 C         139.8357  138.3669  160.2891 C.ar    1  UNL1        0.0988
     24 N         139.6481  138.8203  161.7066 N.ar    1  UNL1       -0.2438
     25 C         141.3503  138.0937  158.1959 C.ar    1  UNL1        0.0037
     26 C         140.1822  138.0708  157.2551 C.ar    1  UNL1        0.0002
     27 C         140.3698  137.6173  155.8376 C.ar    1  UNL1        0.0023
     28 C         141.7253  137.1869  155.3610 C.ar    1  UNL1        0.0296
     29 C         142.8934  137.2099  156.3018 C.ar    1  UNL1        0.1401
     30 F         144.2489  136.7795  155.8251 F       1  UNL1       -0.2042
     31 C         142.7058  137.6633  157.7192 C.ar    1  UNL1        0.0297
@<TRIPOS>BOND
     1     2     1    1
     2     2     3    1
     3     3     4    1
     4     4     5    2
     5     4     6    1
     6     6     7    1
     7     6     8    1
     8     8     9    1
     9     9    10    1
    10     9    11    1
    11     9    12    1
    12    12    13    1
    13    12    14    1
    14    14    17    1
    15    17    18    2
    16    18    19    1
    17    19    20   ar
    18    20    21   ar
    19    21    22   ar
    20    22    25    1
    21    25    26   ar
    22    26    27   ar
    23    27    28   ar
    24    28    29   ar
    25    29    30    1
    26    29    31   ar
    27    22    23   ar
    28    23    24   ar
    29    14    15    1
    30    15     2    1
    31    15     6    1
    32    24    19   ar
    33    31    25   ar
    34     7    16    1
@<TRIPOS>MOLECULE
*****
 31 34 0 0 0
SMALL
GASTEIGER

@<TRIPOS>ATOM
      1 C         143.5912  141.1638  164.8213 C.3     1  UNL1        0.0474
      2 C         142.9682  141.4311  166.1594 C.3     1  UNL1        0.1720
      3 O         143.5250  142.3233  167.2289 O.3     1  UNL1       -0.4506
      4 C         142.5799  142.2966  168.3934 C.2     1  UNL1        0.3414
      5 O         142.7465  143.0469  169.6815 O.2     1  UNL1       -0.2475
      6 C         141.4389  141.3879  168.0436 C.3     1  UNL1        0.1859
      7 O         141.3338  142.0016  169.4082 O.3     1  UNL1       -0.3761
      8 C         140.2124  140.9785  168.8039 C.3     1  UNL1        0.1044
      9 C         139.2259  140.0341  168.1835 C.3     1  UNL1        0.2669
     10 F         138.0093  139.1714  168.0233 F       1  UNL1       -0.2042
     11 F         138.5634  140.2694  169.5085 F       1  UNL1       -0.2042
     12 C         139.4659  139.4991  166.8029 C.3     1  UNL1        0.0656
     13 C         138.4793  138.5547  166.1825 C.3     1  UNL1        0.0060
     14 C         140.6924  139.9086  166.0425 C.3     1  UNL1        0.0336
     15 C         141.6789  140.8530  166.6629 C.3     1  UNL1        0.0795
     16 H         140.5211  141.6941  169.8394 H       1  UNL1        0.2109
     17 C         140.9323  139.3736  164.6618 C.2     1  UNL1       -0.0245
     18 C         140.4089  140.1162  163.4683 C.2     1  UNL1        0.0145
     19 C         140.6489  139.5812  162.0877 C.ar    1  UNL1        0.0810
     20 C         139.5040  139.4389  161.1290 C.ar    1  UNL1        0.0191
     21 C         139.7439  138.9039  159.7483 C.ar    1  UNL1        0.0031
     22 C         141.1287  138.5111  159.3264 C.ar    1  UNL1        0.0193
     23 C         142.2736  138.6533  160.2851 C.ar    1  UNL1        0.0988
     24 N         142.0337  139.1884  161.6657 N.ar    1  UNL1       -0.2438
     25 C         141.3687  137.9760  157.9457 C.ar    1  UNL1        0.0037
     26 C         140.2068  137.6675  157.0486 C.ar    1  UNL1        0.0002
     27 C         140.4468  137.1324  155.6680 C.ar    1  UNL1        0.0023
     28 C         141.8485  136.9059  155.1845 C.ar    1  UNL1        0.0296
     29 C         143.0104  137.2145  156.0816 C.ar    1  UNL1        0.1401
     30 F         144.4122  136.9880  155.5982 F       1  UNL1       -0.2042
     31 C         142.7704  137.7495  157.4623 C.ar    1  UNL1        0.0297
@<TRIPOS>BOND
     1     2     1    1
     2     2     3    1
     3     3     4    1
     4     4     5    2
     5     4     6    1
     6     6     7    1
     7     6     8    1
     8     8     9    1
     9     9    10    1
    10     9    11    1
    11     9    12    1
    12    12    13    1
    13    12    14    1
    14    14    17    1
    15    17    18    2
    16    18    19    1
    17    19    20   ar
    18    20    21   ar
    19    21    22   ar
    20    22    25    1
    21    25    26   ar
    22    26    27   ar
    23    27    28   ar
    24    28    29   ar
    25    29    30    1
    26    29    31   ar
    27    22    23   ar
    28    23    24   ar
    29    14    15    1
    30    15     2    1
    31    15     6    1
    32    24    19   ar
    33    31    25   ar
    34     7    16    1
@<TRIPOS>MOLECULE
*****
 31 34 0 0 0
SMALL
GASTEIGER

@<TRIPOS>ATOM
      1 C         143.2349  139.4725  165.6227 C.3     1  UNL1        0.0474
      2 C         143.0284  139.2999  167.0984 C.3     1  UNL1        0.1720
      3 O         143.5281  138.1566  167.9309 O.3     1  UNL1       -0.4506
      4 C         143.0945  138.3904  169.3477 C.2     1  UNL1        0.3414
      5 O         143.3787  137.4938  170.5161 O.2     1  UNL1       -0.2475
      6 C         142.3268  139.6784  169.3908 C.3     1  UNL1        0.1859
      7 O         142.4504  138.9969  170.7214 O.3     1  UNL1       -0.3761
      8 C         141.6596  140.4119  170.5163 C.3     1  UNL1        0.1044
      9 C         140.9516  141.7075  170.2517 C.3     1  UNL1        0.2669
     10 F         140.1626  142.9589  170.4999 F       1  UNL1       -0.2042
     11 F         140.7184  141.5801  171.7280 F       1  UNL1       -0.2042
     12 C         140.9107  142.2696  168.8617 C.3     1  UNL1        0.0656
     13 C         140.2027  143.5653  168.5971 C.3     1  UNL1        0.0060
     14 C         141.5779  141.5360  167.7361 C.3     1  UNL1        0.0336
     15 C         142.2859  140.2404  168.0007 C.3     1  UNL1        0.0795
     16 H         141.9982  139.5245  171.3981 H       1  UNL1        0.2109
     17 C         141.5370  142.0982  166.3460 C.2     1  UNL1       -0.0245
     18 C         140.4296  141.7093  165.4120 C.2     1  UNL1        0.0145
     19 C         140.3888  142.2715  164.0219 C.ar    1  UNL1        0.0810
     20 C         141.6307  142.8480  163.4093 C.ar    1  UNL1        0.0191
     21 C         141.5900  143.4102  162.0192 C.ar    1  UNL1        0.0031
     22 C         140.3072  143.3959  161.2418 C.ar    1  UNL1        0.0193
     23 C         139.0653  142.8194  161.8544 C.ar    1  UNL1        0.0988
     24 N         139.1061  142.2572  163.2445 N.ar    1  UNL1       -0.2438
     25 C         140.2664  143.9581  159.8517 C.ar    1  UNL1        0.0037
     26 C         141.0796  145.1711  159.5092 C.ar    1  UNL1        0.0002
     27 C         141.0388  145.7333  158.1191 C.ar    1  UNL1        0.0023
     28 C         140.1848  145.0825  157.0717 C.ar    1  UNL1        0.0296
     29 C         139.3716  143.8695  157.4142 C.ar    1  UNL1        0.1401
     30 F         138.5177  143.2187  156.3667 F       1  UNL1       -0.2042
     31 C         139.4125  143.3073  158.8043 C.ar    1  UNL1        0.0297
@<TRIPOS>BOND
     1     2     1    1
     2     2     3    1
     3     3     4    1
     4     4     5    2
     5     4     6    1
     6     6     7    1
     7     6     8    1
     8     8     9    1
     9     9    10    1
    10     9    11    1
    11     9    12    1
    12    12    13    1
    13    12    14    1
    14    14    17    1
    15    17    18    2
    16    18    19    1
    17    19    20   ar
    18    20    21   ar
    19    21    22   ar
    20    22    25    1
    21    25    26   ar
    22    26    27   ar
    23    27    28   ar
    24    28    29   ar
    25    29    30    1
    26    29    31   ar
    27    22    23   ar
    28    23    24   ar
    29    14    15    1
    30    15     2    1
    31    15     6    1
    32    24    19   ar
    33    31    25   ar
    34     7    16    1
@<TRIPOS>MOLECULE
*****
 31 34 0 0 0
SMALL
GASTEIGER

@<TRIPOS>ATOM
      1 C         143.9628  141.0424  160.8832 C.3     1  UNL1        0.0474
      2 C         143.8430  141.8148  159.6030 C.3     1  UNL1        0.1720
      3 O         144.6149  141.5580  158.3428 O.3     1  UNL1       -0.4506
      4 C         144.1792  142.5641  157.3191 C.2     1  UNL1        0.3414
      5 O         144.6944  142.6725  155.9145 O.2     1  UNL1       -0.2475
      6 C         143.1379  143.4427  157.9466 C.3     1  UNL1        0.1859
      7 O         143.4520  143.7909  156.5218 O.3     1  UNL1       -0.3761
      8 C         142.3521  144.6046  157.4150 C.3     1  UNL1        0.1044
      9 C         141.3585  145.3033  158.2950 C.3     1  UNL1        0.2669
     10 F         140.3106  146.2809  158.7382 F       1  UNL1       -0.2042
     11 F         141.2023  146.1059  157.0375 F       1  UNL1       -0.2042
     12 C         141.1507  144.8403  159.7065 C.3     1  UNL1        0.0656
     13 C         140.1570  145.5391  160.5865 C.3     1  UNL1        0.0060
     14 C         141.9365  143.6784  160.2381 C.3     1  UNL1        0.0336
     15 C         142.9301  142.9796  159.3581 C.3     1  UNL1        0.0795
     16 H         142.9100  144.5469  156.2467 H       1  UNL1        0.2109
     17 C         141.7286  143.2153  161.6496 C.2     1  UNL1       -0.0245
     18 C         142.5577  143.7930  162.7582 C.2     1  UNL1        0.0145
     19 C         142.3497  143.3299  164.1697 C.ar    1  UNL1        0.0810
     20 C         140.9678  143.2958  164.7520 C.ar    1  UNL1        0.0191
     21 C         140.7598  142.8327  166.1635 C.ar    1  UNL1        0.0031
     22 C         141.9338  142.4037  166.9927 C.ar    1  UNL1        0.0193
     23 C         143.3158  142.4378  166.4105 C.ar    1  UNL1        0.0988
     24 N         143.5237  142.9009  164.9990 N.ar    1  UNL1       -0.2438
     25 C         141.7258  141.9406  168.4042 C.ar    1  UNL1        0.0037
     26 C         140.5470  142.4343  169.1895 C.ar    1  UNL1        0.0002
     27 C         140.3391  141.9712  170.6010 C.ar    1  UNL1        0.0023
     28 C         141.3100  141.0145  171.2271 C.ar    1  UNL1        0.0296
     29 C         142.4887  140.5208  170.4419 C.ar    1  UNL1        0.1401
     30 F         143.4596  139.5640  171.0681 F       1  UNL1       -0.2042
     31 C         142.6967  140.9839  169.0304 C.ar    1  UNL1        0.0297
@<TRIPOS>BOND
     1     2     1    1
     2     2     3    1
     3     3     4    1
     4     4     5    2
     5     4     6    1
     6     6     7    1
     7     6     8    1
     8     8     9    1
     9     9    10    1
    10     9    11    1
    11     9    12    1
    12    12    13    1
    13    12    14    1
    14    14    17    1
    15    17    18    2
    16    18    19    1
    17    19    20   ar
    18    20    21   ar
    19    21    22   ar
    20    22    25    1
    21    25    26   ar
    22    26    27   ar
    23    27    28   ar
    24    28    29   ar
    25    29    30    1
    26    29    31   ar
    27    22    23   ar
    28    23    24   ar
    29    14    15    1
    30    15     2    1
    31    15     6    1
    32    24    19   ar
    33    31    25   ar
    34     7    16    1
