@<TRIPOS>MOLECULE
*****
 43 45 0 0 0
SMALL
GASTEIGER

@<TRIPOS>ATOM
      1 C         141.7708  141.2480  165.1656 C.3     1  UNL1        0.0847
      2 C         142.8153  144.0646  162.5721 C.ar    1  UNL1        0.1653
      3 C         142.1075  142.8906  163.1809 C.ar    1  UNL1        0.0365
      4 C         142.4786  142.4221  164.5567 C.ar    1  UNL1       -0.0022
      5 C         143.5575  143.1276  165.3236 C.ar    1  UNL1       -0.0002
      6 C         144.2653  144.3016  164.7148 C.ar    1  UNL1        0.0325
      7 C         143.8942  144.7701  163.3391 C.ar    1  UNL1        0.1738
      8 F         144.6021  145.9441  162.7302 F       1  UNL1       -0.2010
      9 O         142.4442  144.5331  161.1963 O.3     1  UNL1       -0.4769
     10 C         140.3066  145.7117  162.0859 C.3     1  UNL1        0.0472
     11 C         141.0912  145.1309  160.9471 C.3     1  UNL1        0.1662
     12 C         140.5228  145.1477  159.5590 C.3     1  UNL1        0.0472
     13 C         140.4509  141.9187  164.9246 C.ar    1  UNL1       -0.0001
     14 C         140.1301  143.2122  165.6130 C.ar    1  UNL1        0.0271
     15 C         138.8102  143.8828  165.3720 C.ar    1  UNL1        0.1429
     16 F         138.1750  145.1446  165.8765 F       1  UNL1       -0.2041
     17 C         137.8111  143.2601  164.4425 C.ar    1  UNL1        0.0667
     18 C         138.1320  141.9666  163.7540 C.ar    1  UNL1        0.1461
     19 C         139.4518  141.2959  163.9950 C.ar    1  UNL1        0.0345
     20 O         137.1328  141.3438  162.8245 O.3     1  UNL1       -0.4263
     21 C         137.5983  140.6494  161.5791 C.3     1  UNL1        0.4723
     22 F         137.3757  139.3200  162.2371 F       1  UNL1       -0.1579
     23 F         137.8209  141.9789  160.9211 F       1  UNL1       -0.1579
     24 C         138.0638  139.9550  160.3337 C.3     1  UNL1        0.4202
     25 F         139.1117  138.8851  160.4185 F       1  UNL1       -0.1876
     26 F         137.4813  140.3305  159.0033 F       1  UNL1       -0.1876
     27 N         143.0907  140.5774  165.4066 N.3     1  UNL1       -0.2906
     28 H         143.1008  140.2904  166.3853 H       1  UNL1        0.1238
     29 C         143.4795  139.3747  164.5987 C.3     1  UNL1        0.1075
     30 C         144.3233  139.5379  163.3694 C.3     1  UNL1        0.2219
     31 O         144.3060  138.4837  162.3024 O.3     1  UNL1       -0.3759
     32 H         144.9025  138.7424  161.5825 H       1  UNL1        0.2107
     33 C         145.1845  140.7553  163.2069 C.3     1  UNL1        0.4232
     34 F         146.0457  141.9726  163.0445 F       1  UNL1       -0.1674
     35 F         145.8952  140.4231  164.4856 F       1  UNL1       -0.1674
     36 F         144.4739  141.0874  161.9284 F       1  UNL1       -0.1674
     37 C         141.0631  140.0740  165.7744 C.3     1  UNL1        0.0492
     38 C         140.8590  140.0087  167.2591 C.ar    1  UNL1       -0.0202
     39 C         139.4966  140.2458  167.8401 C.ar    1  UNL1       -0.0042
     40 C         139.2926  140.1805  169.3246 C.ar    1  UNL1       -0.0003
     41 C         140.4511  139.8781  170.2283 C.ar    1  UNL1       -0.0000
     42 C         141.8135  139.6409  169.6473 C.ar    1  UNL1       -0.0003
     43 C         142.0175  139.7062  168.1627 C.ar    1  UNL1       -0.0042
@<TRIPOS>BOND
     1    10    11    1
     2    11    12    1
     3    11     9    1
     4     9     2    1
     5     2     3   ar
     6     3     4   ar
     7     4     1    1
     8     1    37    1
     9    37    38    1
    10    38    39   ar
    11    39    40   ar
    12    40    41   ar
    13    41    42   ar
    14    42    43   ar
    15     1    27    1
    16    27    29    1
    17    29    30    1
    18    30    31    1
    19    30    33    1
    20    33    34    1
    21    33    35    1
    22    33    36    1
    23     1    13    1
    24    13    14   ar
    25    14    15   ar
    26    15    16    1
    27    15    17   ar
    28    17    18   ar
    29    18    20    1
    30    20    21    1
    31    21    22    1
    32    21    23    1
    33    21    24    1
    34    24    25    1
    35    24    26    1
    36    18    19   ar
    37     4     5   ar
    38     5     6   ar
    39     6     7   ar
    40     7     8    1
    41     7     2   ar
    42    43    38   ar
    43    19    13   ar
    44    27    28    1
    45    31    32    1
@<TRIPOS>MOLECULE
*****
 43 45 0 0 0
SMALL
GASTEIGER

@<TRIPOS>ATOM
      1 C         141.4146  141.9226  165.2648 C.3     1  UNL1        0.0847
      2 C         138.6272  143.1949  162.7426 C.ar    1  UNL1        0.1653
      3 C         139.7597  142.3982  163.3192 C.ar    1  UNL1        0.0365
      4 C         140.2819  142.7194  164.6882 C.ar    1  UNL1       -0.0022
      5 C         139.6716  143.8373  165.4805 C.ar    1  UNL1       -0.0002
      6 C         138.5391  144.6340  164.9039 C.ar    1  UNL1        0.0325
      7 C         138.0168  144.3128  163.5349 C.ar    1  UNL1        0.1738
      8 F         136.8842  145.1095  162.9582 F       1  UNL1       -0.2010
      9 O         138.1049  142.8737  161.3736 O.3     1  UNL1       -0.4769
     10 C         137.6506  140.3157  161.3677 C.3     1  UNL1        0.0472
     11 C         138.3361  141.5146  160.7824 C.3     1  UNL1        0.1662
     12 C         139.2529  141.3545  159.6060 C.3     1  UNL1        0.0472
     13 C         140.5679  140.6853  165.2183 C.ar    1  UNL1       -0.0001
     14 C         139.4263  140.5212  166.1774 C.ar    1  UNL1        0.0271
     15 C         138.5796  139.2838  166.1308 C.ar    1  UNL1        0.1429
     16 F         137.3949  138.8019  166.9144 F       1  UNL1       -0.2041
     17 C         138.8746  138.2106  165.1253 C.ar    1  UNL1        0.0667
     18 C         140.0163  138.3747  164.1663 C.ar    1  UNL1        0.1461
     19 C         140.8629  139.6120  164.2128 C.ar    1  UNL1        0.0345
     20 O         140.3112  137.3014  163.1607 O.3     1  UNL1       -0.4263
     21 C         141.1799  137.6024  161.9755 C.3     1  UNL1        0.4723
     22 F         139.9570  137.8199  161.1345 F       1  UNL1       -0.1579
     23 F         142.4028  137.3848  162.8165 F       1  UNL1       -0.1579
     24 C         142.0485  137.9034  160.7902 C.3     1  UNL1        0.4202
     25 F         143.4318  137.3290  160.7090 F       1  UNL1       -0.1876
     26 F         141.5338  138.7787  159.6861 F       1  UNL1       -0.1876
     27 N         142.2612  143.1600  165.3114 N.3     1  UNL1       -0.2906
     28 H         142.5963  143.2516  166.2704 H       1  UNL1        0.1238
     29 C         143.4614  143.2815  164.4198 C.3     1  UNL1        0.1075
     30 C         143.4409  144.2323  163.2599 C.3     1  UNL1        0.2219
     31 O         144.6466  144.3649  162.3774 O.3     1  UNL1       -0.3759
     32 H         144.4677  145.0162  161.6813 H       1  UNL1        0.2107
     33 C         142.2148  145.0506  162.9824 C.3     1  UNL1        0.4232
     34 F         140.9886  145.8688  162.7050 F       1  UNL1       -0.1674
     35 F         142.4912  145.8785  164.2024 F       1  UNL1       -0.1674
     36 F         141.9384  144.2228  161.7625 F       1  UNL1       -0.1674
     37 C         142.5471  141.1260  165.8415 C.3     1  UNL1        0.0492
     38 C         142.6541  140.9406  167.3262 C.ar    1  UNL1       -0.0202
     39 C         142.9776  142.1111  168.2068 C.ar    1  UNL1       -0.0042
     40 C         143.0846  141.9256  169.6914 C.ar    1  UNL1       -0.0003
     41 C         142.8681  140.5698  170.2954 C.ar    1  UNL1       -0.0000
     42 C         142.5446  139.3994  169.4149 C.ar    1  UNL1       -0.0003
     43 C         142.4376  139.5848  167.9303 C.ar    1  UNL1       -0.0042
@<TRIPOS>BOND
     1    10    11    1
     2    11    12    1
     3    11     9    1
     4     9     2    1
     5     2     3   ar
     6     3     4   ar
     7     4     1    1
     8     1    37    1
     9    37    38    1
    10    38    39   ar
    11    39    40   ar
    12    40    41   ar
    13    41    42   ar
    14    42    43   ar
    15     1    27    1
    16    27    29    1
    17    29    30    1
    18    30    31    1
    19    30    33    1
    20    33    34    1
    21    33    35    1
    22    33    36    1
    23     1    13    1
    24    13    14   ar
    25    14    15   ar
    26    15    16    1
    27    15    17   ar
    28    17    18   ar
    29    18    20    1
    30    20    21    1
    31    21    22    1
    32    21    23    1
    33    21    24    1
    34    24    25    1
    35    24    26    1
    36    18    19   ar
    37     4     5   ar
    38     5     6   ar
    39     6     7   ar
    40     7     8    1
    41     7     2   ar
    42    43    38   ar
    43    19    13   ar
    44    27    28    1
    45    31    32    1
@<TRIPOS>MOLECULE
*****
 43 45 0 0 0
SMALL
GASTEIGER

@<TRIPOS>ATOM
      1 C         141.7192  141.9872  165.2756 C.3     1  UNL1        0.0847
      2 C         138.9573  143.1227  162.6617 C.ar    1  UNL1        0.1653
      3 C         140.0902  142.3641  163.2871 C.ar    1  UNL1        0.0365
      4 C         140.5863  142.7458  164.6502 C.ar    1  UNL1       -0.0022
      5 C         139.9496  143.8861  165.3879 C.ar    1  UNL1       -0.0002
      6 C         138.8167  144.6447  164.7625 C.ar    1  UNL1        0.0325
      7 C         138.3206  144.2630  163.3994 C.ar    1  UNL1        0.1738
      8 F         137.1877  145.0216  162.7740 F       1  UNL1       -0.2010
      9 O         138.4611  142.7410  161.2985 O.3     1  UNL1       -0.4769
     10 C         139.7258  141.0245  159.8138 C.3     1  UNL1        0.0472
     11 C         138.6406  141.3373  160.8009 C.3     1  UNL1        0.1662
     12 C         137.7348  140.2465  161.2905 C.3     1  UNL1        0.0472
     13 C         140.9206  140.7207  165.1862 C.ar    1  UNL1       -0.0001
     14 C         139.7193  140.5280  166.0637 C.ar    1  UNL1        0.0271
     15 C         138.9206  139.2614  165.9742 C.ar    1  UNL1        0.1429
     16 F         137.6998  138.7475  166.6780 F       1  UNL1       -0.2041
     17 C         139.3232  138.1876  165.0074 C.ar    1  UNL1        0.0667
     18 C         140.5245  138.3803  164.1300 C.ar    1  UNL1        0.1461
     19 C         141.3231  139.6468  164.2194 C.ar    1  UNL1        0.0345
     20 O         140.9271  137.3063  163.1632 O.3     1  UNL1       -0.4263
     21 C         141.5658  137.6743  161.8569 C.3     1  UNL1        0.4723
     22 F         142.9217  137.5653  162.4891 F       1  UNL1       -0.1579
     23 F         140.2099  137.7833  161.2246 F       1  UNL1       -0.1579
     24 C         142.2046  138.0422  160.5505 C.3     1  UNL1        0.4202
     25 F         141.3697  138.1378  159.3080 F       1  UNL1       -0.1876
     26 F         143.6783  138.3146  160.4866 F       1  UNL1       -0.1876
     27 N         142.5179  143.2537  165.3650 N.3     1  UNL1       -0.2906
     28 H         142.5446  143.5160  166.3503 H       1  UNL1        0.1238
     29 C         143.9336  143.2842  164.8701 C.3     1  UNL1        0.1075
     30 C         144.2143  143.2443  163.3972 C.3     1  UNL1        0.2219
     31 O         144.1203  144.4996  162.5815 O.3     1  UNL1       -0.3759
     32 H         144.3307  144.3002  161.6558 H       1  UNL1        0.2107
     33 C         144.5890  141.9490  162.7399 C.3     1  UNL1        0.4232
     34 F         144.9636  140.6538  162.0826 F       1  UNL1       -0.1674
     35 F         145.9876  142.0876  163.2641 F       1  UNL1       -0.1674
     36 F         143.1904  141.8105  162.2158 F       1  UNL1       -0.1674
     37 C         142.8521  141.2287  165.9010 C.3     1  UNL1        0.0492
     38 C         142.8394  140.9402  167.3730 C.ar    1  UNL1       -0.0202
     39 C         143.0433  142.0536  168.3573 C.ar    1  UNL1       -0.0042
     40 C         143.0306  141.7650  169.8292 C.ar    1  UNL1       -0.0003
     41 C         142.8139  140.3631  170.3168 C.ar    1  UNL1       -0.0000
     42 C         142.6100  139.2498  169.3326 C.ar    1  UNL1       -0.0003
     43 C         142.6227  139.5383  167.8607 C.ar    1  UNL1       -0.0042
@<TRIPOS>BOND
     1    10    11    1
     2    11    12    1
     3    11     9    1
     4     9     2    1
     5     2     3   ar
     6     3     4   ar
     7     4     1    1
     8     1    37    1
     9    37    38    1
    10    38    39   ar
    11    39    40   ar
    12    40    41   ar
    13    41    42   ar
    14    42    43   ar
    15     1    27    1
    16    27    29    1
    17    29    30    1
    18    30    31    1
    19    30    33    1
    20    33    34    1
    21    33    35    1
    22    33    36    1
    23     1    13    1
    24    13    14   ar
    25    14    15   ar
    26    15    16    1
    27    15    17   ar
    28    17    18   ar
    29    18    20    1
    30    20    21    1
    31    21    22    1
    32    21    23    1
    33    21    24    1
    34    24    25    1
    35    24    26    1
    36    18    19   ar
    37     4     5   ar
    38     5     6   ar
    39     6     7   ar
    40     7     8    1
    41     7     2   ar
    42    43    38   ar
    43    19    13   ar
    44    27    28    1
    45    31    32    1
@<TRIPOS>MOLECULE
*****
 43 45 0 0 0
SMALL
GASTEIGER

@<TRIPOS>ATOM
      1 C         140.2894  141.1524  165.0620 C.3     1  UNL1        0.0847
      2 C         139.8176  143.8045  162.1477 C.ar    1  UNL1        0.1653
      3 C         140.1556  142.5305  162.8636 C.ar    1  UNL1        0.0365
      4 C         139.9514  142.4264  164.3460 C.ar    1  UNL1       -0.0022
      5 C         139.4092  143.5963  165.1124 C.ar    1  UNL1       -0.0002
      6 C         139.0711  144.8703  164.3964 C.ar    1  UNL1        0.0325
      7 C         139.2754  144.9744  162.9140 C.ar    1  UNL1        0.1738
      8 F         138.9374  146.2484  162.1980 F       1  UNL1       -0.2010
      9 O         140.0218  143.9086  160.6652 O.3     1  UNL1       -0.4769
     10 C         138.6340  142.0973  159.4232 C.3     1  UNL1        0.0472
     11 C         139.9619  142.6767  159.8115 C.3     1  UNL1        0.1662
     12 C         141.2299  142.0243  159.3462 C.3     1  UNL1        0.0472
     13 C         141.7505  141.4330  164.8717 C.ar    1  UNL1       -0.0001
     14 C         142.4068  142.5438  165.6368 C.ar    1  UNL1        0.0271
     15 C         143.8681  142.8243  165.4464 C.ar    1  UNL1        0.1429
     16 F         144.8214  143.8253  166.0287 F       1  UNL1       -0.2041
     17 C         144.6729  141.9942  164.4909 C.ar    1  UNL1        0.0667
     18 C         144.0166  140.8834  163.7258 C.ar    1  UNL1        0.1461
     19 C         142.5555  140.6028  163.9161 C.ar    1  UNL1        0.0345
     20 O         144.8215  140.0532  162.7703 O.3     1  UNL1       -0.4263
     21 C         144.1770  139.4920  161.5375 C.3     1  UNL1        0.4723
     22 F         144.2905  140.8300  160.8691 F       1  UNL1       -0.1579
     23 F         144.0635  138.1540  162.2061 F       1  UNL1       -0.1579
     24 C         143.5325  138.9308  160.3048 C.3     1  UNL1        0.4202
     25 F         143.6997  139.6281  158.9873 F       1  UNL1       -0.1876
     26 F         142.7208  137.6722  160.3896 F       1  UNL1       -0.1876
     27 N         138.8283  140.8718  165.2524 N.3     1  UNL1       -0.2906
     28 H         138.3221  141.6603  164.8495 H       1  UNL1        0.1238
     29 C         138.2220  139.6273  164.6746 C.3     1  UNL1        0.1075
     30 C         138.2861  139.3781  163.1969 C.3     1  UNL1        0.2219
     31 O         137.3582  140.1086  162.2721 O.3     1  UNL1       -0.3759
     32 H         137.5300  139.8335  161.3580 H       1  UNL1        0.2107
     33 C         139.2783  138.3983  162.6438 C.3     1  UNL1        0.4232
     34 F         140.2703  137.4185  162.0909 F       1  UNL1       -0.1674
     35 F         139.9282  139.4992  161.8592 F       1  UNL1       -0.1674
     36 F         138.6283  137.2974  163.4285 F       1  UNL1       -0.1674
     37 C         140.6273  139.8784  165.7781 C.3     1  UNL1        0.0492
     38 C         140.8508  139.8883  167.2613 C.ar    1  UNL1       -0.0202
     39 C         142.2062  139.5672  167.8178 C.ar    1  UNL1       -0.0042
     40 C         142.4296  139.5770  169.3010 C.ar    1  UNL1       -0.0003
     41 C         141.2975  139.9080  170.2278 C.ar    1  UNL1       -0.0000
     42 C         139.9421  140.2291  169.6713 C.ar    1  UNL1       -0.0003
     43 C         139.7187  140.2192  168.1881 C.ar    1  UNL1       -0.0042
@<TRIPOS>BOND
     1    10    11    1
     2    11    12    1
     3    11     9    1
     4     9     2    1
     5     2     3   ar
     6     3     4   ar
     7     4     1    1
     8     1    37    1
     9    37    38    1
    10    38    39   ar
    11    39    40   ar
    12    40    41   ar
    13    41    42   ar
    14    42    43   ar
    15     1    27    1
    16    27    29    1
    17    29    30    1
    18    30    31    1
    19    30    33    1
    20    33    34    1
    21    33    35    1
    22    33    36    1
    23     1    13    1
    24    13    14   ar
    25    14    15   ar
    26    15    16    1
    27    15    17   ar
    28    17    18   ar
    29    18    20    1
    30    20    21    1
    31    21    22    1
    32    21    23    1
    33    21    24    1
    34    24    25    1
    35    24    26    1
    36    18    19   ar
    37     4     5   ar
    38     5     6   ar
    39     6     7   ar
    40     7     8    1
    41     7     2   ar
    42    43    38   ar
    43    19    13   ar
    44    27    28    1
    45    31    32    1
@<TRIPOS>MOLECULE
*****
 43 45 0 0 0
SMALL
GASTEIGER

@<TRIPOS>ATOM
      1 C         141.2967  140.9512  166.5785 C.3     1  UNL1        0.0847
      2 C         144.2851  140.5823  163.9933 C.ar    1  UNL1        0.1653
      3 C         143.0560  140.2672  164.7933 C.ar    1  UNL1        0.0365
      4 C         142.5258  141.2663  165.7784 C.ar    1  UNL1       -0.0022
      5 C         143.2246  142.5806  165.9635 C.ar    1  UNL1       -0.0002
      6 C         144.4537  142.8958  165.1636 C.ar    1  UNL1        0.0325
      7 C         144.9839  141.8966  164.1785 C.ar    1  UNL1        0.1738
      8 F         146.2130  142.2117  163.3784 F       1  UNL1       -0.2010
      9 O         144.8154  139.5831  163.0082 O.3     1  UNL1       -0.4769
     10 C         143.7263  140.5632  160.8627 C.3     1  UNL1        0.0472
     11 C         144.1163  139.3791  161.6968 C.3     1  UNL1        0.1662
     12 C         143.8073  137.9910  161.2196 C.3     1  UNL1        0.0472
     13 C         140.5046  141.9094  165.7392 C.ar    1  UNL1       -0.0001
     14 C         139.9992  143.1891  166.3367 C.ar    1  UNL1        0.0271
     15 C         139.2071  144.1473  165.4973 C.ar    1  UNL1        0.1429
     16 F         138.5660  145.4778  165.7592 F       1  UNL1       -0.2041
     17 C         138.9205  143.8258  164.0605 C.ar    1  UNL1        0.0667
     18 C         139.4259  142.5462  163.4630 C.ar    1  UNL1        0.1461
     19 C         140.2180  141.5880  164.3023 C.ar    1  UNL1        0.0345
     20 O         139.1393  142.2248  162.0261 O.3     1  UNL1       -0.4263
     21 C         138.7469  140.8314  161.6331 C.3     1  UNL1        0.4723
     22 F         140.1276  140.5937  161.0974 F       1  UNL1       -0.1579
     23 F         137.3661  141.0692  162.1689 F       1  UNL1       -0.1579
     24 C         138.3545  139.4380  161.2401 C.3     1  UNL1        0.4202
     25 F         138.7451  138.8999  159.8956 F       1  UNL1       -0.1876
     26 F         137.5714  138.5828  162.1916 F       1  UNL1       -0.1876
     27 N         142.0887  139.9930  167.4178 N.3     1  UNL1       -0.2906
     28 H         143.0710  140.2412  167.3004 H       1  UNL1        0.1238
     29 C         141.8378  139.9046  168.8941 C.3     1  UNL1        0.1075
     30 C         142.6491  140.7352  169.8437 C.3     1  UNL1        0.2219
     31 O         143.6695  140.0819  170.7281 O.3     1  UNL1       -0.3759
     32 H         144.1014  140.7558  171.2760 H       1  UNL1        0.2107
     33 C         142.4400  142.2192  169.9091 C.3     1  UNL1        0.4232
     34 F         142.2309  143.7031  169.9744 F       1  UNL1       -0.1674
     35 F         143.8527  142.4382  169.4546 F       1  UNL1       -0.1674
     36 F         141.0274  142.0001  170.3635 F       1  UNL1       -0.1674
     37 C         140.0676  140.6361  167.3785 C.3     1  UNL1        0.0492
     38 C         139.2249  139.4475  167.0219 C.ar    1  UNL1       -0.0202
     39 C         138.0155  139.1120  167.8434 C.ar    1  UNL1       -0.0042
     40 C         137.1728  137.9234  167.4867 C.ar    1  UNL1       -0.0003
     41 C         137.5395  137.0704  166.3087 C.ar    1  UNL1       -0.0000
     42 C         138.7489  137.4059  165.4872 C.ar    1  UNL1       -0.0003
     43 C         139.5916  138.5944  165.8439 C.ar    1  UNL1       -0.0042
@<TRIPOS>BOND
     1    10    11    1
     2    11    12    1
     3    11     9    1
     4     9     2    1
     5     2     3   ar
     6     3     4   ar
     7     4     1    1
     8     1    37    1
     9    37    38    1
    10    38    39   ar
    11    39    40   ar
    12    40    41   ar
    13    41    42   ar
    14    42    43   ar
    15     1    27    1
    16    27    29    1
    17    29    30    1
    18    30    31    1
    19    30    33    1
    20    33    34    1
    21    33    35    1
    22    33    36    1
    23     1    13    1
    24    13    14   ar
    25    14    15   ar
    26    15    16    1
    27    15    17   ar
    28    17    18   ar
    29    18    20    1
    30    20    21    1
    31    21    22    1
    32    21    23    1
    33    21    24    1
    34    24    25    1
    35    24    26    1
    36    18    19   ar
    37     4     5   ar
    38     5     6   ar
    39     6     7   ar
    40     7     8    1
    41     7     2   ar
    42    43    38   ar
    43    19    13   ar
    44    27    28    1
    45    31    32    1
@<TRIPOS>MOLECULE
*****
 43 45 0 0 0
SMALL
GASTEIGER

@<TRIPOS>ATOM
      1 C         141.0676  140.8096  164.6590 C.3     1  UNL1        0.0847
      2 C         139.3192  139.7512  168.0608 C.ar    1  UNL1        0.1653
      3 C         140.3168  140.3242  167.0984 C.ar    1  UNL1        0.0365
      4 C         140.0700  140.2365  165.6215 C.ar    1  UNL1       -0.0022
      5 C         138.8256  139.5756  165.1070 C.ar    1  UNL1       -0.0002
      6 C         137.8280  139.0025  166.0694 C.ar    1  UNL1        0.0325
      7 C         138.0747  139.0903  167.5463 C.ar    1  UNL1        0.1738
      8 F         137.0771  138.5172  168.5088 F       1  UNL1       -0.2010
      9 O         139.5659  139.8389  169.5378 O.3     1  UNL1       -0.4769
     10 C         139.8477  142.3369  170.1939 C.3     1  UNL1        0.0472
     11 C         140.4080  140.9492  170.0929 C.3     1  UNL1        0.1662
     12 C         141.8105  140.6718  170.5469 C.3     1  UNL1        0.0472
     13 C         140.1243  141.9343  164.3508 C.ar    1  UNL1       -0.0001
     14 C         139.8219  142.9673  165.3955 C.ar    1  UNL1        0.0271
     15 C         138.8785  144.0920  165.0872 C.ar    1  UNL1        0.1429
     16 F         138.3639  145.2643  165.8688 F       1  UNL1       -0.2041
     17 C         138.2374  144.1837  163.7342 C.ar    1  UNL1        0.0667
     18 C         138.5397  143.1507  162.6895 C.ar    1  UNL1        0.1461
     19 C         139.4831  142.0260  162.9977 C.ar    1  UNL1        0.0345
     20 O         137.8986  143.2424  161.3365 O.3     1  UNL1       -0.4263
     21 C         138.5286  142.5576  160.1600 C.3     1  UNL1        0.4723
     22 F         139.3491  143.7830  159.8861 F       1  UNL1       -0.1579
     23 F         137.7081  141.3321  160.4340 F       1  UNL1       -0.1579
     24 C         139.1586  141.8727  158.9836 C.3     1  UNL1        0.4202
     25 F         138.2983  141.1697  157.9758 F       1  UNL1       -0.1876
     26 F         140.6491  141.8909  158.8149 F       1  UNL1       -0.1876
     27 N         142.0110  139.6849  164.9673 N.3     1  UNL1       -0.2906
     28 H         141.4443  138.9132  165.3189 H       1  UNL1        0.1238
     29 C         142.8860  139.1223  163.8865 C.3     1  UNL1        0.1075
     30 C         142.3459  138.0831  162.9493 C.3     1  UNL1        0.2219
     31 O         143.2252  137.5098  161.8778 O.3     1  UNL1       -0.3759
     32 H         142.7250  136.8564  161.3642 H       1  UNL1        0.2107
     33 C         140.9264  137.6171  163.0836 C.3     1  UNL1        0.4232
     34 F         139.5070  137.1511  163.2180 F       1  UNL1       -0.1674
     35 F         140.4888  138.6687  162.1075 F       1  UNL1       -0.1674
     36 F         141.3640  136.5655  164.0597 F       1  UNL1       -0.1674
     37 C         142.0653  141.3826  163.6966 C.3     1  UNL1        0.0492
     38 C         142.8273  142.6236  164.0564 C.ar    1  UNL1       -0.0202
     39 C         143.7603  142.6166  165.2309 C.ar    1  UNL1       -0.0042
     40 C         144.5223  143.8575  165.5907 C.ar    1  UNL1       -0.0003
     41 C         144.3514  145.1053  164.7760 C.ar    1  UNL1       -0.0000
     42 C         143.4184  145.1123  163.6015 C.ar    1  UNL1       -0.0003
     43 C         142.6564  143.8714  163.2417 C.ar    1  UNL1       -0.0042
@<TRIPOS>BOND
     1    10    11    1
     2    11    12    1
     3    11     9    1
     4     9     2    1
     5     2     3   ar
     6     3     4   ar
     7     4     1    1
     8     1    37    1
     9    37    38    1
    10    38    39   ar
    11    39    40   ar
    12    40    41   ar
    13    41    42   ar
    14    42    43   ar
    15     1    27    1
    16    27    29    1
    17    29    30    1
    18    30    31    1
    19    30    33    1
    20    33    34    1
    21    33    35    1
    22    33    36    1
    23     1    13    1
    24    13    14   ar
    25    14    15   ar
    26    15    16    1
    27    15    17   ar
    28    17    18   ar
    29    18    20    1
    30    20    21    1
    31    21    22    1
    32    21    23    1
    33    21    24    1
    34    24    25    1
    35    24    26    1
    36    18    19   ar
    37     4     5   ar
    38     5     6   ar
    39     6     7   ar
    40     7     8    1
    41     7     2   ar
    42    43    38   ar
    43    19    13   ar
    44    27    28    1
    45    31    32    1
@<TRIPOS>MOLECULE
*****
 43 45 0 0 0
SMALL
GASTEIGER

@<TRIPOS>ATOM
      1 C         141.3343  141.5524  165.5274 C.3     1  UNL1        0.0847
      2 C         138.9390  143.0479  162.7388 C.ar    1  UNL1        0.1653
      3 C         139.9802  142.1993  163.4065 C.ar    1  UNL1        0.0365
      4 C         140.2930  142.4010  164.8595 C.ar    1  UNL1       -0.0022
      5 C         139.5647  143.4512  165.6449 C.ar    1  UNL1       -0.0002
      6 C         138.5236  144.2997  164.9771 C.ar    1  UNL1        0.0325
      7 C         138.2107  144.0980  163.5241 C.ar    1  UNL1        0.1738
      8 F         137.1695  144.9466  162.8563 F       1  UNL1       -0.2010
      9 O         138.6261  142.8462  161.2856 O.3     1  UNL1       -0.4769
     10 C         137.5651  140.4993  161.6266 C.3     1  UNL1        0.0472
     11 C         138.3179  141.4723  160.7684 C.3     1  UNL1        0.1662
     12 C         138.7626  141.0715  159.3930 C.3     1  UNL1        0.0472
     13 C         142.3703  142.0761  164.5775 C.ar    1  UNL1       -0.0001
     14 C         142.6497  143.5483  164.5095 C.ar    1  UNL1        0.0271
     15 C         143.6859  144.0720  163.5596 C.ar    1  UNL1        0.1429
     16 F         144.2074  145.4410  163.2378 F       1  UNL1       -0.2041
     17 C         144.4425  143.1235  162.6777 C.ar    1  UNL1        0.0667
     18 C         144.1631  141.6513  162.7457 C.ar    1  UNL1        0.1461
     19 C         143.1270  141.1276  163.6955 C.ar    1  UNL1        0.0345
     20 O         144.9198  140.7028  161.8637 O.3     1  UNL1       -0.4263
     21 C         144.1883  139.6262  161.1182 C.3     1  UNL1        0.4723
     22 F         143.9705  140.5683  159.9715 F       1  UNL1       -0.1579
     23 F         144.4061  138.6841  162.2651 F       1  UNL1       -0.1579
     24 C         143.4567  138.5497  160.3728 C.3     1  UNL1        0.4202
     25 F         143.3145  138.6337  158.8819 F       1  UNL1       -0.1876
     26 F         142.8673  137.3890  161.1181 F       1  UNL1       -0.1876
     27 N         140.2982  141.0288  166.4772 N.3     1  UNL1       -0.2906
     28 H         139.4551  141.5833  166.3283 H       1  UNL1        0.1238
     29 C         139.8851  139.5880  166.4167 C.3     1  UNL1        0.1075
     30 C         138.4784  139.2261  166.0423 C.3     1  UNL1        0.2219
     31 O         137.6798  140.1371  165.1578 O.3     1  UNL1       -0.3759
     32 H         136.7985  139.7581  165.0148 H       1  UNL1        0.2107
     33 C         137.8703  137.9533  166.5523 C.3     1  UNL1        0.4232
     34 F         137.2622  136.6805  167.0624 F       1  UNL1       -0.1674
     35 F         138.4673  137.2052  165.3973 F       1  UNL1       -0.1674
     36 F         137.2734  138.7014  167.7073 F       1  UNL1       -0.1674
     37 C         142.3754  140.7039  166.1952 C.3     1  UNL1        0.0492
     38 C         142.7051  140.9215  167.6423 C.ar    1  UNL1       -0.0202
     39 C         143.1215  142.2808  168.1205 C.ar    1  UNL1       -0.0042
     40 C         143.4511  142.4983  169.5675 C.ar    1  UNL1       -0.0003
     41 C         143.3643  141.3565  170.5364 C.ar    1  UNL1       -0.0000
     42 C         142.9479  139.9971  170.0582 C.ar    1  UNL1       -0.0003
     43 C         142.6183  139.7796  168.6111 C.ar    1  UNL1       -0.0042
@<TRIPOS>BOND
     1    10    11    1
     2    11    12    1
     3    11     9    1
     4     9     2    1
     5     2     3   ar
     6     3     4   ar
     7     4     1    1
     8     1    37    1
     9    37    38    1
    10    38    39   ar
    11    39    40   ar
    12    40    41   ar
    13    41    42   ar
    14    42    43   ar
    15     1    27    1
    16    27    29    1
    17    29    30    1
    18    30    31    1
    19    30    33    1
    20    33    34    1
    21    33    35    1
    22    33    36    1
    23     1    13    1
    24    13    14   ar
    25    14    15   ar
    26    15    16    1
    27    15    17   ar
    28    17    18   ar
    29    18    20    1
    30    20    21    1
    31    21    22    1
    32    21    23    1
    33    21    24    1
    34    24    25    1
    35    24    26    1
    36    18    19   ar
    37     4     5   ar
    38     5     6   ar
    39     6     7   ar
    40     7     8    1
    41     7     2   ar
    42    43    38   ar
    43    19    13   ar
    44    27    28    1
    45    31    32    1
@<TRIPOS>MOLECULE
*****
 43 45 0 0 0
SMALL
GASTEIGER

@<TRIPOS>ATOM
      1 C         142.8213  140.4895  164.4835 C.3     1  UNL1        0.0847
      2 C         142.4249  140.5822  168.4312 C.ar    1  UNL1        0.1653
      3 C         142.4015  141.0107  166.9939 C.ar    1  UNL1        0.0365
      4 C         142.8447  140.0610  165.9209 C.ar    1  UNL1       -0.0022
      5 C         143.3111  138.6826  166.2851 C.ar    1  UNL1       -0.0002
      6 C         143.3345  138.2541  167.7223 C.ar    1  UNL1        0.0325
      7 C         142.8914  139.2039  168.7954 C.ar    1  UNL1        0.1738
      8 F         142.9147  138.7754  170.2327 F       1  UNL1       -0.2010
      9 O         141.9818  141.5320  169.5043 O.3     1  UNL1       -0.4769
     10 C         139.4347  141.0990  169.7782 C.3     1  UNL1        0.0472
     11 C         140.5714  142.0426  169.5184 C.3     1  UNL1        0.1662
     12 C         140.2978  143.4968  169.2726 C.3     1  UNL1        0.0472
     13 C         141.3685  140.1261  164.3987 C.ar    1  UNL1       -0.0001
     14 C         140.9259  138.7270  164.7095 C.ar    1  UNL1        0.0271
     15 C         139.4730  138.3637  164.6247 C.ar    1  UNL1        0.1429
     16 F         138.6996  137.1000  164.8591 F       1  UNL1       -0.2041
     17 C         138.4628  139.3994  164.2292 C.ar    1  UNL1        0.0667
     18 C         138.9053  140.7986  163.9184 C.ar    1  UNL1        0.1461
     19 C         140.3581  141.1619  164.0032 C.ar    1  UNL1        0.0345
     20 O         137.8950  141.8344  163.5229 O.3     1  UNL1       -0.4263
     21 C         138.2490  143.2905  163.5875 C.3     1  UNL1        0.4723
     22 F         137.9223  143.3050  165.0513 F       1  UNL1       -0.1579
     23 F         138.5757  143.2760  162.1235 F       1  UNL1       -0.1579
     24 C         138.6031  144.7467  163.6520 C.3     1  UNL1        0.4202
     25 F         138.9163  145.3845  164.9730 F       1  UNL1       -0.1876
     26 F         138.6439  145.5651  162.3956 F       1  UNL1       -0.1876
     27 N         144.2741  140.8528  164.5683 N.3     1  UNL1       -0.2906
     28 H         144.7835  140.1598  164.0199 H       1  UNL1        0.1238
     29 C         144.7386  142.2007  164.1017 C.3     1  UNL1        0.1075
     30 C         144.2917  143.4385  164.8214 C.3     1  UNL1        0.2219
     31 O         144.9337  143.8234  166.1213 O.3     1  UNL1       -0.3759
     32 H         144.5314  144.6423  166.4506 H       1  UNL1        0.2107
     33 C         143.2027  144.2915  164.2412 C.3     1  UNL1        0.4232
     34 F         142.1137  145.1445  163.6611 F       1  UNL1       -0.1674
     35 F         144.1972  144.9353  163.3211 F       1  UNL1       -0.1674
     36 F         142.2083  143.6477  165.1613 F       1  UNL1       -0.1674
     37 C         142.7980  140.9180  163.0462 C.3     1  UNL1        0.0492
     38 C         142.8315  139.8883  161.9560 C.ar    1  UNL1       -0.0202
     39 C         143.7354  138.6973  162.0766 C.ar    1  UNL1       -0.0042
     40 C         143.7688  137.6677  160.9864 C.ar    1  UNL1       -0.0003
     41 C         142.8984  137.8290  159.7754 C.ar    1  UNL1       -0.0000
     42 C         141.9945  139.0199  159.6548 C.ar    1  UNL1       -0.0003
     43 C         141.9611  140.0496  160.7450 C.ar    1  UNL1       -0.0042
@<TRIPOS>BOND
     1    10    11    1
     2    11    12    1
     3    11     9    1
     4     9     2    1
     5     2     3   ar
     6     3     4   ar
     7     4     1    1
     8     1    37    1
     9    37    38    1
    10    38    39   ar
    11    39    40   ar
    12    40    41   ar
    13    41    42   ar
    14    42    43   ar
    15     1    27    1
    16    27    29    1
    17    29    30    1
    18    30    31    1
    19    30    33    1
    20    33    34    1
    21    33    35    1
    22    33    36    1
    23     1    13    1
    24    13    14   ar
    25    14    15   ar
    26    15    16    1
    27    15    17   ar
    28    17    18   ar
    29    18    20    1
    30    20    21    1
    31    21    22    1
    32    21    23    1
    33    21    24    1
    34    24    25    1
    35    24    26    1
    36    18    19   ar
    37     4     5   ar
    38     5     6   ar
    39     6     7   ar
    40     7     8    1
    41     7     2   ar
    42    43    38   ar
    43    19    13   ar
    44    27    28    1
    45    31    32    1
@<TRIPOS>MOLECULE
*****
 43 45 0 0 0
SMALL
GASTEIGER

@<TRIPOS>ATOM
      1 C         139.7824  141.7262  163.7125 C.3     1  UNL1        0.0847
      2 C         141.8734  141.7316  160.3394 C.ar    1  UNL1        0.1653
      3 C         140.8599  141.3523  161.3781 C.ar    1  UNL1        0.0365
      4 C         140.7960  142.1054  162.6737 C.ar    1  UNL1       -0.0022
      5 C         141.7456  143.2378  162.9307 C.ar    1  UNL1       -0.0002
      6 C         142.7591  143.6170  161.8920 C.ar    1  UNL1        0.0325
      7 C         142.8230  142.8639  160.5964 C.ar    1  UNL1        0.1738
      8 F         143.8366  143.2432  159.5576 F       1  UNL1       -0.2010
      9 O         141.9374  140.9785  159.0437 O.3     1  UNL1       -0.4769
     10 C         143.7162  139.3391  159.9914 C.3     1  UNL1        0.0472
     11 C         143.0177  139.9623  158.8193 C.3     1  UNL1        0.1662
     12 C         143.3995  139.5694  157.4229 C.3     1  UNL1        0.0472
     13 C         140.8850  141.4852  164.7004 C.ar    1  UNL1       -0.0001
     14 C         142.0089  140.5529  164.3574 C.ar    1  UNL1        0.0271
     15 C         143.1116  140.3119  165.3454 C.ar    1  UNL1        0.1429
     16 F         144.3531  139.4702  165.3365 F       1  UNL1       -0.2041
     17 C         143.0903  141.0032  166.6764 C.ar    1  UNL1        0.0667
     18 C         141.9664  141.9355  167.0195 C.ar    1  UNL1        0.1461
     19 C         140.8638  142.1765  166.0315 C.ar    1  UNL1        0.0345
     20 O         141.9452  142.6268  168.3505 O.3     1  UNL1       -0.4263
     21 C         140.7759  142.4441  169.2720 C.3     1  UNL1        0.4723
     22 F         140.2854  143.8177  168.9221 F       1  UNL1       -0.1579
     23 F         141.2664  141.0703  169.6219 F       1  UNL1       -0.1579
     24 C         139.6065  142.2613  170.1935 C.3     1  UNL1        0.4202
     25 F         139.2742  143.3202  171.2026 F       1  UNL1       -0.1876
     26 F         138.7694  141.0196  170.1059 F       1  UNL1       -0.1876
     27 N         138.6798  141.9672  162.7245 N.3     1  UNL1       -0.2906
     28 H         138.1142  141.1187  162.7018 H       1  UNL1        0.1238
     29 C         137.7329  143.1137  162.9222 C.3     1  UNL1        0.1075
     30 C         138.2616  144.4678  163.2918 C.3     1  UNL1        0.2219
     31 O         138.5868  145.4645  162.2190 O.3     1  UNL1       -0.3759
     32 H         138.9146  146.2818  162.6256 H       1  UNL1        0.2107
     33 C         138.4651  144.8254  164.7343 C.3     1  UNL1        0.4232
     34 F         138.6686  145.1830  166.1768 F       1  UNL1       -0.1674
     35 F         139.8563  145.2918  164.4224 F       1  UNL1       -0.1674
     36 F         137.0740  144.3591  165.0462 F       1  UNL1       -0.1674
     37 C         138.7689  141.3469  164.7511 C.3     1  UNL1        0.0492
     38 C         138.5676  139.9048  165.1114 C.ar    1  UNL1       -0.0202
     39 C         138.9307  138.8291  164.1310 C.ar    1  UNL1       -0.0042
     40 C         138.7294  137.3871  164.4912 C.ar    1  UNL1       -0.0003
     41 C         138.1651  137.0206  165.8319 C.ar    1  UNL1       -0.0000
     42 C         137.8021  138.0962  166.8122 C.ar    1  UNL1       -0.0003
     43 C         138.0033  139.5383  166.4520 C.ar    1  UNL1       -0.0042
@<TRIPOS>BOND
     1    10    11    1
     2    11    12    1
     3    11     9    1
     4     9     2    1
     5     2     3   ar
     6     3     4   ar
     7     4     1    1
     8     1    37    1
     9    37    38    1
    10    38    39   ar
    11    39    40   ar
    12    40    41   ar
    13    41    42   ar
    14    42    43   ar
    15     1    27    1
    16    27    29    1
    17    29    30    1
    18    30    31    1
    19    30    33    1
    20    33    34    1
    21    33    35    1
    22    33    36    1
    23     1    13    1
    24    13    14   ar
    25    14    15   ar
    26    15    16    1
    27    15    17   ar
    28    17    18   ar
    29    18    20    1
    30    20    21    1
    31    21    22    1
    32    21    23    1
    33    21    24    1
    34    24    25    1
    35    24    26    1
    36    18    19   ar
    37     4     5   ar
    38     5     6   ar
    39     6     7   ar
    40     7     8    1
    41     7     2   ar
    42    43    38   ar
    43    19    13   ar
    44    27    28    1
    45    31    32    1
