@<TRIPOS>MOLECULE
*****
 38 43 0 0 0
SMALL
GASTEIGER

@<TRIPOS>ATOM
      1 C         137.8209  142.9496  163.2087 C.3     1  UNL1        0.0932
      2 C         137.7055  141.7812  164.1422 C.3     1  UNL1        0.0286
      3 C         137.7348  140.3827  163.6006 C.3     1  UNL1        0.0193
      4 C         137.8796  140.1526  162.1254 C.3     1  UNL1        0.0700
      5 C         137.9950  141.3210  161.1918 C.3     1  UNL1        0.0193
      6 C         137.9657  142.7196  161.7335 C.3     1  UNL1        0.0286
      7 C         137.8686  140.9370  162.3754 C.3     1  UNL1        0.1562
      8 O         137.8421  142.2016  162.8651 O.3     1  UNL1       -0.3572
      9 N         137.9089  138.7542  161.5837 N.3     1  UNL1       -0.2926
     10 H         137.3132  138.7465  160.7558 H       1  UNL1        0.1236
     11 C         139.2138  138.1318  161.1840 C.3     1  UNL1        0.1152
     12 C         140.4210  138.2931  162.0597 C.ar    1  UNL1        0.0765
     13 C         140.5836  137.4339  163.2785 C.ar    1  UNL1        0.0193
     14 C         141.7908  137.5951  164.1541 C.ar    1  UNL1        0.0411
     15 C         142.8353  138.6155  163.8110 C.ar    1  UNL1        0.1708
     16 C         142.6727  139.4747  162.5923 C.ar    1  UNL1        0.1682
     17 N         141.4655  139.3135  161.7166 N.ar    1  UNL1       -0.2304
     18 N         143.7173  140.4951  162.2492 N.am    1  UNL1       -0.2639
     19 C         144.9244  140.6563  163.1248 C.2     1  UNL1        0.2718
     20 O         145.9689  141.6767  162.7817 O.2     1  UNL1       -0.2707
     21 C         145.0871  139.7971  164.3436 C.3     1  UNL1        0.2898
     22 O         144.0425  138.7767  164.6867 O.3     1  UNL1       -0.4628
     23 H         143.6105  141.0590  161.4493 H       1  UNL1        0.1565
     24 C         137.7916  144.3480  163.7503 C.3     1  UNL1        0.0320
     25 C         138.9148  144.8418  164.6133 C.3     1  UNL1        0.0327
     26 C         140.9208  141.9922  167.4604 C.ar    1  UNL1        0.2250
     27 C         142.3250  141.5346  167.1984 C.ar    1  UNL1        0.0593
     28 C         143.0606  142.0268  165.9873 C.ar    1  UNL1        0.0254
     29 C         142.3919  142.9766  165.0382 C.ar    1  UNL1        0.0990
     30 N         143.1275  143.4688  163.8272 N.ar    1  UNL1       -0.2400
     31 C         142.4589  144.4186  162.8781 C.ar    1  UNL1        0.1281
     32 C         141.0546  144.8763  163.1402 C.ar    1  UNL1        0.1566
     33 F         140.3859  145.8261  162.1912 F       1  UNL1       -0.2028
     34 C         140.3190  144.3841  164.3513 C.ar    1  UNL1        0.0261
     35 C         140.9877  143.4343  165.3003 C.ar    1  UNL1        0.1002
     36 N         140.2522  142.9421  166.5114 N.ar    1  UNL1       -0.2104
     37 C         139.4921  140.1703  168.6390 C.3     1  UNL1        0.2542
     38 O         140.1853  141.5001  168.6715 O.3     1  UNL1       -0.4561
@<TRIPOS>BOND
     1    37    38    1
     2    38    26    1
     3    26    27   ar
     4    27    28   ar
     5    28    29   ar
     6    29    30   ar
     7    30    31   ar
     8    31    32   ar
     9    32    33    1
    10    32    34   ar
    11    34    25    1
    12    25    24    1
    13    24     1    1
    14     1     2    1
    15     2     3    1
    16     3     4    1
    17     4     9    1
    18     9    11    1
    19    11    12    1
    20    12    13   ar
    21    13    14   ar
    22    14    15   ar
    23    15    16   ar
    24    16    17   ar
    25    16    18    1
    26    18    19   am
    27    19    20    2
    28    19    21    1
    29    21    22    1
    30     4     5    1
    31     5     6    1
    32     4     7    1
    33     7     8    1
    34    34    35   ar
    35    35    36   ar
    36    36    26   ar
    37    35    29   ar
    38     6     1    1
    39     8     1    1
    40    17    12   ar
    41    22    15    1
    42     9    10    1
    43    18    23    1
@<TRIPOS>MOLECULE
*****
 38 43 0 0 0
SMALL
GASTEIGER

@<TRIPOS>ATOM
      1 C         141.9969  138.0648  163.9869 C.3     1  UNL1        0.0932
      2 C         142.2363  138.4525  162.5577 C.3     1  UNL1        0.0286
      3 C         143.4209  139.2996  162.1987 C.3     1  UNL1        0.0193
      4 C         144.3663  139.7591  163.2689 C.3     1  UNL1        0.0700
      5 C         144.1269  139.3714  164.6981 C.3     1  UNL1        0.0193
      6 C         142.9422  138.5242  165.0570 C.3     1  UNL1        0.0286
      7 C         143.7309  139.2964  163.5141 C.3     1  UNL1        0.1562
      8 O         142.6597  138.5304  163.8387 O.3     1  UNL1       -0.3572
      9 N         145.5509  140.6063  162.9099 N.3     1  UNL1       -0.2926
     10 H         145.6217  140.5976  161.8924 H       1  UNL1        0.1236
     11 C         145.6014  142.0438  163.3352 C.3     1  UNL1        0.1152
     12 C         144.3876  142.9126  163.1879 C.ar    1  UNL1        0.0765
     13 C         143.7164  143.4762  164.4054 C.ar    1  UNL1        0.0193
     14 C         142.5025  144.3449  164.2581 C.ar    1  UNL1        0.0411
     15 C         141.9598  144.6502  162.8935 C.ar    1  UNL1        0.1708
     16 C         142.6309  144.0867  161.6761 C.ar    1  UNL1        0.1682
     17 N         143.8448  143.2179  161.8233 N.ar    1  UNL1       -0.2304
     18 N         142.0882  144.3920  160.3115 N.am    1  UNL1       -0.2639
     19 C         140.8743  145.2608  160.1642 C.2     1  UNL1        0.2718
     20 O         140.3316  145.5661  158.7996 O.2     1  UNL1       -0.2707
     21 C         140.2031  145.8244  161.3816 C.3     1  UNL1        0.2898
     22 O         140.7459  145.5191  162.7462 O.3     1  UNL1       -0.4628
     23 H         142.5287  144.0222  159.5124 H       1  UNL1        0.1565
     24 C         140.8123  137.2176  164.3458 C.3     1  UNL1        0.0320
     25 C         139.5447  137.8637  164.8212 C.3     1  UNL1        0.0327
     26 C         140.2000  141.9074  166.6837 C.ar    1  UNL1        0.2250
     27 C         139.6846  143.1398  166.0013 C.ar    1  UNL1        0.0593
     28 C         138.9508  143.0243  164.6982 C.ar    1  UNL1        0.0254
     29 C         138.7324  141.6764  164.0773 C.ar    1  UNL1        0.0990
     30 N         137.9986  141.5609  162.7742 N.ar    1  UNL1       -0.2400
     31 C         137.7802  140.2130  162.1534 C.ar    1  UNL1        0.1281
     32 C         138.2956  138.9805  162.8357 C.ar    1  UNL1        0.1566
     33 F         138.0771  137.6326  162.2149 F       1  UNL1       -0.2028
     34 C         139.0293  139.0960  164.1389 C.ar    1  UNL1        0.0261
     35 C         139.2477  140.4440  164.7597 C.ar    1  UNL1        0.1002
     36 N         139.9815  140.5595  166.0628 N.ar    1  UNL1       -0.2104
     37 C         140.5559  143.0927  168.9680 C.3     1  UNL1        0.2542
     38 O         140.9337  142.0229  167.9868 O.3     1  UNL1       -0.4561
@<TRIPOS>BOND
     1    37    38    1
     2    38    26    1
     3    26    27   ar
     4    27    28   ar
     5    28    29   ar
     6    29    30   ar
     7    30    31   ar
     8    31    32   ar
     9    32    33    1
    10    32    34   ar
    11    34    25    1
    12    25    24    1
    13    24     1    1
    14     1     2    1
    15     2     3    1
    16     3     4    1
    17     4     9    1
    18     9    11    1
    19    11    12    1
    20    12    13   ar
    21    13    14   ar
    22    14    15   ar
    23    15    16   ar
    24    16    17   ar
    25    16    18    1
    26    18    19   am
    27    19    20    2
    28    19    21    1
    29    21    22    1
    30     4     5    1
    31     5     6    1
    32     4     7    1
    33     7     8    1
    34    34    35   ar
    35    35    36   ar
    36    36    26   ar
    37    35    29   ar
    38     6     1    1
    39     8     1    1
    40    17    12   ar
    41    22    15    1
    42     9    10    1
    43    18    23    1
@<TRIPOS>MOLECULE
*****
 38 43 0 0 0
SMALL
GASTEIGER

@<TRIPOS>ATOM
      1 C         144.5073  139.8280  163.6631 C.3     1  UNL1        0.0932
      2 C         143.7628  139.1437  164.7710 C.3     1  UNL1        0.0286
      3 C         142.6087  138.2401  164.4528 C.3     1  UNL1        0.0193
      4 C         142.1989  138.0207  163.0266 C.3     1  UNL1        0.0700
      5 C         142.9434  138.7050  161.9186 C.3     1  UNL1        0.0193
      6 C         144.0976  139.6086  162.2369 C.3     1  UNL1        0.0286
      7 C         142.8378  138.5248  163.1517 C.3     1  UNL1        0.1562
      8 O         143.8814  139.3419  163.4395 O.3     1  UNL1       -0.3572
      9 N         141.0447  137.1171  162.7083 N.3     1  UNL1       -0.2926
     10 H         140.8474  136.5824  163.5543 H       1  UNL1        0.1236
     11 C         139.7405  137.6993  162.2500 C.3     1  UNL1        0.1152
     12 C         139.2139  138.9519  162.8853 C.ar    1  UNL1        0.0765
     13 C         138.5748  138.8938  164.2411 C.ar    1  UNL1        0.0193
     14 C         138.0482  140.1464  164.8764 C.ar    1  UNL1        0.0411
     15 C         138.1607  141.4572  164.1558 C.ar    1  UNL1        0.1708
     16 C         138.7997  141.5154  162.8000 C.ar    1  UNL1        0.1682
     17 N         139.3263  140.2627  162.1647 N.ar    1  UNL1       -0.2304
     18 N         138.9121  142.8262  162.0795 N.am    1  UNL1       -0.2639
     19 C         138.3855  144.0788  162.7147 C.2     1  UNL1        0.2718
     20 O         138.4979  145.3896  161.9942 O.2     1  UNL1       -0.2707
     21 C         137.7464  144.0207  164.0706 C.3     1  UNL1        0.2898
     22 O         137.6340  142.7099  164.7911 O.3     1  UNL1       -0.4628
     23 H         139.3315  142.8643  161.1896 H       1  UNL1        0.1565
     24 C         145.6615  140.7316  163.9813 C.3     1  UNL1        0.0320
     25 C         145.4110  142.1545  164.3848 C.3     1  UNL1        0.0327
     26 C         142.2675  141.8887  167.5938 C.ar    1  UNL1        0.2250
     27 C         140.9173  142.5040  167.3738 C.ar    1  UNL1        0.0593
     28 C         140.6150  143.2080  166.0842 C.ar    1  UNL1        0.0254
     29 C         141.6628  143.2966  165.0146 C.ar    1  UNL1        0.0990
     30 N         141.3605  144.0005  163.7250 N.ar    1  UNL1       -0.2400
     31 C         142.4083  144.0892  162.6553 C.ar    1  UNL1        0.1281
     32 C         143.7585  143.4738  162.8753 C.ar    1  UNL1        0.1566
     33 F         144.8063  143.5624  161.8056 F       1  UNL1       -0.2028
     34 C         144.0608  142.7698  164.1649 C.ar    1  UNL1        0.0261
     35 C         143.0129  142.6812  165.2345 C.ar    1  UNL1        0.1002
     36 N         143.3153  141.9773  166.5241 N.ar    1  UNL1       -0.2104
     37 C         143.3293  141.8941  169.9649 C.3     1  UNL1        0.2542
     38 O         142.5698  141.1847  168.8834 O.3     1  UNL1       -0.4561
@<TRIPOS>BOND
     1    37    38    1
     2    38    26    1
     3    26    27   ar
     4    27    28   ar
     5    28    29   ar
     6    29    30   ar
     7    30    31   ar
     8    31    32   ar
     9    32    33    1
    10    32    34   ar
    11    34    25    1
    12    25    24    1
    13    24     1    1
    14     1     2    1
    15     2     3    1
    16     3     4    1
    17     4     9    1
    18     9    11    1
    19    11    12    1
    20    12    13   ar
    21    13    14   ar
    22    14    15   ar
    23    15    16   ar
    24    16    17   ar
    25    16    18    1
    26    18    19   am
    27    19    20    2
    28    19    21    1
    29    21    22    1
    30     4     5    1
    31     5     6    1
    32     4     7    1
    33     7     8    1
    34    34    35   ar
    35    35    36   ar
    36    36    26   ar
    37    35    29   ar
    38     6     1    1
    39     8     1    1
    40    17    12   ar
    41    22    15    1
    42     9    10    1
    43    18    23    1
@<TRIPOS>MOLECULE
*****
 38 43 0 0 0
SMALL
GASTEIGER

@<TRIPOS>ATOM
      1 C         141.6190  138.2120  164.4712 C.3     1  UNL1        0.0932
      2 C         141.9735  138.1935  163.0138 C.3     1  UNL1        0.0286
      3 C         140.8904  138.1091  161.9795 C.3     1  UNL1        0.0193
      4 C         139.4528  138.0431  162.4026 C.3     1  UNL1        0.0700
      5 C         139.0983  138.0615  163.8600 C.3     1  UNL1        0.0193
      6 C         140.1815  138.1460  164.8943 C.3     1  UNL1        0.0286
      7 C         140.0114  138.0884  163.0058 C.3     1  UNL1        0.1562
      8 O         140.9907  138.1648  163.9410 O.3     1  UNL1       -0.3572
      9 N         138.3697  137.9587  161.3683 N.3     1  UNL1       -0.2926
     10 H         137.8310  137.1173  161.5741 H       1  UNL1        0.1236
     11 C         137.3835  139.0793  161.2219 C.3     1  UNL1        0.1152
     12 C         137.8333  140.5007  161.3870 C.ar    1  UNL1        0.0765
     13 C         137.3469  141.3107  162.5521 C.ar    1  UNL1        0.0193
     14 C         137.7968  142.7321  162.7172 C.ar    1  UNL1        0.0411
     15 C         138.7330  143.3435  161.7173 C.ar    1  UNL1        0.1708
     16 C         139.2193  142.5335  160.5523 C.ar    1  UNL1        0.1682
     17 N         138.7695  141.1120  160.3871 N.ar    1  UNL1       -0.2304
     18 N         140.1555  143.1448  159.5524 N.am    1  UNL1       -0.2639
     19 C         140.6054  144.5662  159.7176 C.2     1  UNL1        0.2718
     20 O         141.5416  145.1776  158.7177 O.2     1  UNL1       -0.2707
     21 C         140.1190  145.3763  160.8826 C.3     1  UNL1        0.2898
     22 O         139.1828  144.7649  161.8825 O.3     1  UNL1       -0.4628
     23 H         140.4748  142.6132  158.7878 H       1  UNL1        0.1565
     24 C         142.7021  138.2964  165.5055 C.3     1  UNL1        0.0320
     25 C         143.1606  139.6349  166.0038 C.3     1  UNL1        0.0327
     26 C         140.8935  143.4382  165.2009 C.ar    1  UNL1        0.2250
     27 C         141.4420  144.4493  164.2381 C.ar    1  UNL1        0.0593
     28 C         142.7461  144.1925  163.5430 C.ar    1  UNL1        0.0254
     29 C         143.5018  142.9248  163.8106 C.ar    1  UNL1        0.0990
     30 N         144.8060  142.6681  163.1154 N.ar    1  UNL1       -0.2400
     31 C         145.5617  141.4003  163.3831 C.ar    1  UNL1        0.1281
     32 C         145.0133  140.3892  164.3459 C.ar    1  UNL1        0.1566
     33 F         145.7690  139.1215  164.6135 F       1  UNL1       -0.2028
     34 C         143.7091  140.6459  165.0410 C.ar    1  UNL1        0.0261
     35 C         142.9534  141.9138  164.7733 C.ar    1  UNL1        0.1002
     36 N         141.6492  142.1705  165.4685 N.ar    1  UNL1       -0.2104
     37 C         138.7237  144.8423  165.4667 C.3     1  UNL1        0.2542
     38 O         139.5893  143.6949  165.8960 O.3     1  UNL1       -0.4561
@<TRIPOS>BOND
     1    37    38    1
     2    38    26    1
     3    26    27   ar
     4    27    28   ar
     5    28    29   ar
     6    29    30   ar
     7    30    31   ar
     8    31    32   ar
     9    32    33    1
    10    32    34   ar
    11    34    25    1
    12    25    24    1
    13    24     1    1
    14     1     2    1
    15     2     3    1
    16     3     4    1
    17     4     9    1
    18     9    11    1
    19    11    12    1
    20    12    13   ar
    21    13    14   ar
    22    14    15   ar
    23    15    16   ar
    24    16    17   ar
    25    16    18    1
    26    18    19   am
    27    19    20    2
    28    19    21    1
    29    21    22    1
    30     4     5    1
    31     5     6    1
    32     4     7    1
    33     7     8    1
    34    34    35   ar
    35    35    36   ar
    36    36    26   ar
    37    35    29   ar
    38     6     1    1
    39     8     1    1
    40    17    12   ar
    41    22    15    1
    42     9    10    1
    43    18    23    1
@<TRIPOS>MOLECULE
*****
 38 43 0 0 0
SMALL
GASTEIGER

@<TRIPOS>ATOM
      1 C         142.8586  144.4672  163.4108 C.3     1  UNL1        0.0932
      2 C         141.5033  144.8103  163.9542 C.3     1  UNL1        0.0286
      3 C         140.2781  144.5623  163.1252 C.3     1  UNL1        0.0193
      4 C         140.4082  143.9712  161.7527 C.3     1  UNL1        0.0700
      5 C         141.7635  143.6281  161.2092 C.3     1  UNL1        0.0193
      6 C         142.9888  143.8762  162.0383 C.3     1  UNL1        0.0286
      7 C         141.1083  144.0889  162.1697 C.3     1  UNL1        0.1562
      8 O         142.2162  144.3132  162.9193 O.3     1  UNL1       -0.3572
      9 N         139.1830  143.7231  160.9237 N.3     1  UNL1       -0.2926
     10 H         139.4891  143.2265  160.0870 H       1  UNL1        0.1236
     11 C         138.0361  142.9431  161.4949 C.3     1  UNL1        0.1152
     12 C         138.2830  141.6140  162.1450 C.ar    1  UNL1        0.0765
     13 C         138.9189  140.5031  161.3629 C.ar    1  UNL1        0.0193
     14 C         139.1657  139.1741  162.0129 C.ar    1  UNL1        0.0411
     15 C         138.7766  138.9558  163.4451 C.ar    1  UNL1        0.1708
     16 C         138.1407  140.0666  164.2271 C.ar    1  UNL1        0.1682
     17 N         137.8939  141.3958  163.5771 N.ar    1  UNL1       -0.2304
     18 N         137.7517  139.8483  165.6593 N.am    1  UNL1       -0.2639
     19 C         137.9985  138.5193  166.3093 C.2     1  UNL1        0.2718
     20 O         137.6094  138.3010  167.7414 O.2     1  UNL1       -0.2707
     21 C         138.6344  137.4084  165.5272 C.3     1  UNL1        0.2898
     22 O         139.0235  137.6266  164.0951 O.3     1  UNL1       -0.4628
     23 H         137.3343  140.5774  166.1726 H       1  UNL1        0.1565
     24 C         144.0838  144.7153  164.2398 C.3     1  UNL1        0.0320
     25 C         144.4959  143.7215  165.2851 C.3     1  UNL1        0.0327
     26 C         141.1600  141.8235  167.6344 C.ar    1  UNL1        0.2250
     27 C         140.8469  140.3682  167.4505 C.ar    1  UNL1        0.0593
     28 C         141.6458  139.5454  166.4836 C.ar    1  UNL1        0.0254
     29 C         142.7577  140.1781  165.7005 C.ar    1  UNL1        0.0990
     30 N         143.5565  139.3554  164.7335 N.ar    1  UNL1       -0.2400
     31 C         144.6685  139.9880  163.9504 C.ar    1  UNL1        0.1281
     32 C         144.9817  141.4434  164.1343 C.ar    1  UNL1        0.1566
     33 F         146.0936  142.0761  163.3512 F       1  UNL1       -0.2028
     34 C         144.1828  142.2662  165.1012 C.ar    1  UNL1        0.0261
     35 C         143.0708  141.6334  165.8844 C.ar    1  UNL1        0.1002
     36 N         142.2720  142.4561  166.8513 N.ar    1  UNL1       -0.2104
     37 C         141.0140  143.1996  169.8332 C.3     1  UNL1        0.2542
     38 O         140.3612  142.6462  168.6014 O.3     1  UNL1       -0.4561
@<TRIPOS>BOND
     1    37    38    1
     2    38    26    1
     3    26    27   ar
     4    27    28   ar
     5    28    29   ar
     6    29    30   ar
     7    30    31   ar
     8    31    32   ar
     9    32    33    1
    10    32    34   ar
    11    34    25    1
    12    25    24    1
    13    24     1    1
    14     1     2    1
    15     2     3    1
    16     3     4    1
    17     4     9    1
    18     9    11    1
    19    11    12    1
    20    12    13   ar
    21    13    14   ar
    22    14    15   ar
    23    15    16   ar
    24    16    17   ar
    25    16    18    1
    26    18    19   am
    27    19    20    2
    28    19    21    1
    29    21    22    1
    30     4     5    1
    31     5     6    1
    32     4     7    1
    33     7     8    1
    34    34    35   ar
    35    35    36   ar
    36    36    26   ar
    37    35    29   ar
    38     6     1    1
    39     8     1    1
    40    17    12   ar
    41    22    15    1
    42     9    10    1
    43    18    23    1
@<TRIPOS>MOLECULE
*****
 38 43 0 0 0
SMALL
GASTEIGER

@<TRIPOS>ATOM
      1 C         144.2466  139.5613  163.7839 C.3     1  UNL1        0.0932
      2 C         143.3473  139.1487  164.9112 C.3     1  UNL1        0.0286
      3 C         142.1294  138.3183  164.6337 C.3     1  UNL1        0.0193
      4 C         141.8107  137.9005  163.2287 C.3     1  UNL1        0.0700
      5 C         142.7100  138.3132  162.1013 C.3     1  UNL1        0.0193
      6 C         143.9280  139.1436  162.3789 C.3     1  UNL1        0.0286
      7 C         142.4893  138.3554  163.3316 C.3     1  UNL1        0.1562
      8 O         143.5906  139.1062  163.5826 O.3     1  UNL1       -0.3572
      9 N         140.5928  137.0702  162.9511 N.3     1  UNL1       -0.2926
     10 H         140.7308  136.1775  163.4249 H       1  UNL1        0.1236
     11 C         139.2369  137.5693  163.3542 C.3     1  UNL1        0.1152
     12 C         138.8247  138.9726  163.0211 C.ar    1  UNL1        0.0765
     13 C         138.2710  139.2894  161.6635 C.ar    1  UNL1        0.0193
     14 C         137.8588  140.6926  161.3304 C.ar    1  UNL1        0.0411
     15 C         138.0003  141.7791  162.3549 C.ar    1  UNL1        0.1708
     16 C         138.5540  141.4623  163.7124 C.ar    1  UNL1        0.1682
     17 N         138.9662  140.0590  164.0456 N.ar    1  UNL1       -0.2304
     18 N         138.6955  142.5488  164.7369 N.am    1  UNL1       -0.2639
     19 C         138.2833  143.9520  164.4038 C.2     1  UNL1        0.2718
     20 O         138.4248  145.0385  165.4283 O.2     1  UNL1       -0.2707
     21 C         137.7296  144.2689  163.0462 C.3     1  UNL1        0.2898
     22 O         137.5881  143.1824  162.0217 O.3     1  UNL1       -0.4628
     23 H         139.0589  142.3409  165.6279 H       1  UNL1        0.1565
     24 C         145.4646  140.3917  164.0614 C.3     1  UNL1        0.0320
     25 C         145.4445  141.8668  163.7898 C.3     1  UNL1        0.0327
     26 C         143.8942  142.7732  159.6637 C.ar    1  UNL1        0.2250
     27 C         142.5859  143.4869  159.4941 C.ar    1  UNL1        0.0593
     28 C         141.7942  143.8984  160.6999 C.ar    1  UNL1        0.0254
     29 C         142.3109  143.5962  162.0753 C.ar    1  UNL1        0.0990
     30 N         141.5193  144.0078  163.2811 N.ar    1  UNL1       -0.2400
     31 C         142.0360  143.7056  164.6564 C.ar    1  UNL1        0.1281
     32 C         143.3445  142.9919  164.8261 C.ar    1  UNL1        0.1566
     33 F         143.8612  142.6898  166.2014 F       1  UNL1       -0.2028
     34 C         144.1361  142.5804  163.6203 C.ar    1  UNL1        0.0261
     35 C         143.6193  142.8826  162.2448 C.ar    1  UNL1        0.1002
     36 N         144.4110  142.4711  161.0390 N.ar    1  UNL1       -0.2104
     37 C         144.5034  140.9929  157.8722 C.3     1  UNL1        0.2542
     38 O         144.6859  142.3617  158.4579 O.3     1  UNL1       -0.4561
@<TRIPOS>BOND
     1    37    38    1
     2    38    26    1
     3    26    27   ar
     4    27    28   ar
     5    28    29   ar
     6    29    30   ar
     7    30    31   ar
     8    31    32   ar
     9    32    33    1
    10    32    34   ar
    11    34    25    1
    12    25    24    1
    13    24     1    1
    14     1     2    1
    15     2     3    1
    16     3     4    1
    17     4     9    1
    18     9    11    1
    19    11    12    1
    20    12    13   ar
    21    13    14   ar
    22    14    15   ar
    23    15    16   ar
    24    16    17   ar
    25    16    18    1
    26    18    19   am
    27    19    20    2
    28    19    21    1
    29    21    22    1
    30     4     5    1
    31     5     6    1
    32     4     7    1
    33     7     8    1
    34    34    35   ar
    35    35    36   ar
    36    36    26   ar
    37    35    29   ar
    38     6     1    1
    39     8     1    1
    40    17    12   ar
    41    22    15    1
    42     9    10    1
    43    18    23    1
@<TRIPOS>MOLECULE
*****
 38 43 0 0 0
SMALL
GASTEIGER

@<TRIPOS>ATOM
      1 C         141.9796  137.9902  164.6818 C.3     1  UNL1        0.0932
      2 C         140.5435  137.6904  164.9944 C.3     1  UNL1        0.0286
      3 C         139.5220  137.6858  163.8960 C.3     1  UNL1        0.0193
      4 C         139.9366  137.9811  162.4849 C.3     1  UNL1        0.0700
      5 C         141.3727  138.2810  162.1723 C.3     1  UNL1        0.0193
      6 C         142.3942  138.2855  163.2708 C.3     1  UNL1        0.0286
      7 C         140.5322  137.9952  163.0533 C.3     1  UNL1        0.1562
      8 O         141.4558  137.9993  164.0464 O.3     1  UNL1       -0.3572
      9 N         138.9151  137.9766  161.3865 N.3     1  UNL1       -0.2926
     10 H         138.4872  137.0506  161.3862 H       1  UNL1        0.1236
     11 C         137.7931  138.9720  161.4016 C.3     1  UNL1        0.1152
     12 C         138.0895  140.4339  161.5592 C.ar    1  UNL1        0.0765
     13 C         137.3569  141.2409  162.5898 C.ar    1  UNL1        0.0193
     14 C         137.6534  142.7029  162.7473 C.ar    1  UNL1        0.0411
     15 C         138.6824  143.3578  161.8743 C.ar    1  UNL1        0.1708
     16 C         139.4149  142.5509  160.8437 C.ar    1  UNL1        0.1682
     17 N         139.1185  141.0889  160.6861 N.ar    1  UNL1       -0.2304
     18 N         140.4439  143.2058  159.9707 N.am    1  UNL1       -0.2639
     19 C         140.7404  144.6677  160.1282 C.2     1  UNL1        0.2718
     20 O         141.7694  145.3227  159.2552 O.2     1  UNL1       -0.2707
     21 C         140.0078  145.4748  161.1588 C.3     1  UNL1        0.2898
     22 O         138.9788  144.8198  162.0319 O.3     1  UNL1       -0.4628
     23 H         140.9247  142.6762  159.2943 H       1  UNL1        0.1565
     24 C         143.0011  137.9948  165.7802 C.3     1  UNL1        0.0320
     25 C         143.3900  139.2859  166.4373 C.3     1  UNL1        0.0327
     26 C         141.6097  142.7980  164.2588 C.ar    1  UNL1        0.2250
     27 C         140.5662  143.6440  164.9263 C.ar    1  UNL1        0.0593
     28 C         140.1162  143.3193  166.3198 C.ar    1  UNL1        0.0254
     29 C         140.7096  142.1486  167.0460 C.ar    1  UNL1        0.0990
     30 N         140.2596  141.8240  168.4396 N.ar    1  UNL1       -0.2400
     31 C         140.8530  140.6533  169.1657 C.ar    1  UNL1        0.1281
     32 C         141.8965  139.8072  168.4983 C.ar    1  UNL1        0.1566
     33 F         142.4899  138.6366  169.2245 F       1  UNL1       -0.2028
     34 C         142.3466  140.1319  167.1047 C.ar    1  UNL1        0.0261
     35 C         141.7531  141.3027  166.3786 C.ar    1  UNL1        0.1002
     36 N         142.2031  141.6273  164.9850 N.ar    1  UNL1       -0.2104
     37 C         143.3619  143.8335  162.6441 C.3     1  UNL1        0.2542
     38 O         142.0597  143.1227  162.8653 O.3     1  UNL1       -0.4561
@<TRIPOS>BOND
     1    37    38    1
     2    38    26    1
     3    26    27   ar
     4    27    28   ar
     5    28    29   ar
     6    29    30   ar
     7    30    31   ar
     8    31    32   ar
     9    32    33    1
    10    32    34   ar
    11    34    25    1
    12    25    24    1
    13    24     1    1
    14     1     2    1
    15     2     3    1
    16     3     4    1
    17     4     9    1
    18     9    11    1
    19    11    12    1
    20    12    13   ar
    21    13    14   ar
    22    14    15   ar
    23    15    16   ar
    24    16    17   ar
    25    16    18    1
    26    18    19   am
    27    19    20    2
    28    19    21    1
    29    21    22    1
    30     4     5    1
    31     5     6    1
    32     4     7    1
    33     7     8    1
    34    34    35   ar
    35    35    36   ar
    36    36    26   ar
    37    35    29   ar
    38     6     1    1
    39     8     1    1
    40    17    12   ar
    41    22    15    1
    42     9    10    1
    43    18    23    1
@<TRIPOS>MOLECULE
*****
 38 43 0 0 0
SMALL
GASTEIGER

@<TRIPOS>ATOM
      1 C         138.4982  139.9162  164.7216 C.3     1  UNL1        0.0932
      2 C         139.2279  140.9333  165.5480 C.3     1  UNL1        0.0286
      3 C         139.0638  142.3952  165.2549 C.3     1  UNL1        0.0193
      4 C         138.1699  142.8400  164.1354 C.3     1  UNL1        0.0700
      5 C         137.4402  141.8229  163.3090 C.3     1  UNL1        0.0193
      6 C         137.6043  140.3610  163.6021 C.3     1  UNL1        0.0286
      7 C         138.2283  142.0280  164.2582 C.3     1  UNL1        0.1562
      8 O         138.3767  140.7061  164.5232 O.3     1  UNL1       -0.3572
      9 N         138.0058  144.3019  163.8424 N.3     1  UNL1       -0.2926
     10 H         138.2550  144.8030  164.6952 H       1  UNL1        0.1236
     11 C         138.7821  144.9348  162.7258 C.3     1  UNL1        0.1152
     12 C         140.2215  144.5707  162.5126 C.ar    1  UNL1        0.0765
     13 C         141.2872  145.1962  163.3631 C.ar    1  UNL1        0.0193
     14 C         142.7267  144.8321  163.1499 C.ar    1  UNL1        0.0411
     15 C         143.1005  143.8426  162.0864 C.ar    1  UNL1        0.1708
     16 C         142.0349  143.2171  161.2360 C.ar    1  UNL1        0.1682
     17 N         140.5953  143.5812  161.4491 N.ar    1  UNL1       -0.2304
     18 N         142.4087  142.2276  160.1725 N.am    1  UNL1       -0.2639
     19 C         143.8481  141.8635  159.9594 C.2     1  UNL1        0.2718
     20 O         144.2219  140.8740  158.8958 O.2     1  UNL1       -0.2707
     21 C         144.9138  142.4890  160.8098 C.3     1  UNL1        0.2898
     22 O         144.5400  143.4785  161.8733 O.3     1  UNL1       -0.4628
     23 H         141.7092  141.8171  159.6144 H       1  UNL1        0.1565
     24 C         138.6623  138.4543  165.0146 C.3     1  UNL1        0.0320
     25 C         139.2807  137.5490  163.9909 C.3     1  UNL1        0.0327
     26 C         143.2424  138.6802  165.8007 C.ar    1  UNL1        0.2250
     27 C         144.3503  139.1850  164.9246 C.ar    1  UNL1        0.0593
     28 C         144.1377  139.3128  163.4452 C.ar    1  UNL1        0.0254
     29 C         142.8172  138.9357  162.8420 C.ar    1  UNL1        0.0990
     30 N         142.6046  139.0634  161.3626 N.ar    1  UNL1       -0.2400
     31 C         141.2841  138.6864  160.7594 C.ar    1  UNL1        0.1281
     32 C         140.1760  138.1815  161.6355 C.ar    1  UNL1        0.1566
     33 F         138.8555  137.8045  161.0322 F       1  UNL1       -0.2028
     34 C         140.3887  138.0538  163.1148 C.ar    1  UNL1        0.0261
     35 C         141.7093  138.4309  163.7181 C.ar    1  UNL1        0.1002
     36 N         141.9219  138.3031  165.1974 N.ar    1  UNL1       -0.2104
     37 C         142.6683  139.4088  168.2275 C.3     1  UNL1        0.2542
     38 O         143.4550  138.5525  167.2800 O.3     1  UNL1       -0.4561
@<TRIPOS>BOND
     1    37    38    1
     2    38    26    1
     3    26    27   ar
     4    27    28   ar
     5    28    29   ar
     6    29    30   ar
     7    30    31   ar
     8    31    32   ar
     9    32    33    1
    10    32    34   ar
    11    34    25    1
    12    25    24    1
    13    24     1    1
    14     1     2    1
    15     2     3    1
    16     3     4    1
    17     4     9    1
    18     9    11    1
    19    11    12    1
    20    12    13   ar
    21    13    14   ar
    22    14    15   ar
    23    15    16   ar
    24    16    17   ar
    25    16    18    1
    26    18    19   am
    27    19    20    2
    28    19    21    1
    29    21    22    1
    30     4     5    1
    31     5     6    1
    32     4     7    1
    33     7     8    1
    34    34    35   ar
    35    35    36   ar
    36    36    26   ar
    37    35    29   ar
    38     6     1    1
    39     8     1    1
    40    17    12   ar
    41    22    15    1
    42     9    10    1
    43    18    23    1
@<TRIPOS>MOLECULE
*****
 38 43 0 0 0
SMALL
GASTEIGER

@<TRIPOS>ATOM
      1 C         142.0829  138.0734  163.8599 C.3     1  UNL1        0.0932
      2 C         142.9368  138.5862  164.9815 C.3     1  UNL1        0.0286
      3 C         144.1024  139.4832  164.6871 C.3     1  UNL1        0.0193
      4 C         144.4142  139.8674  163.2710 C.3     1  UNL1        0.0700
      5 C         143.5603  139.3546  162.1494 C.3     1  UNL1        0.0193
      6 C         142.3946  138.4576  162.4439 C.3     1  UNL1        0.0286
      7 C         143.7650  139.3735  163.3830 C.3     1  UNL1        0.1562
      8 O         142.7110  138.5624  163.6493 O.3     1  UNL1       -0.3572
      9 N         145.5798  140.7643  162.9765 N.3     1  UNL1       -0.2926
     10 H         145.7385  140.7201  161.9699 H       1  UNL1        0.1236
     11 C         145.5187  142.2179  163.3417 C.3     1  UNL1        0.1152
     12 C         144.2032  142.9385  163.3339 C.ar    1  UNL1        0.0765
     13 C         143.4329  143.1074  164.6100 C.ar    1  UNL1        0.0193
     14 C         142.1174  143.8280  164.6022 C.ar    1  UNL1        0.0411
     15 C         141.5721  144.3797  163.3184 C.ar    1  UNL1        0.1708
     16 C         142.3422  144.2108  162.0423 C.ar    1  UNL1        0.1682
     17 N         143.6578  143.4902  162.0501 N.ar    1  UNL1       -0.2304
     18 N         141.7969  144.7625  160.7585 N.am    1  UNL1       -0.2639
     19 C         140.4813  145.4831  160.7507 C.2     1  UNL1        0.2718
     20 O         139.9360  146.0348  159.4669 O.2     1  UNL1       -0.2707
     21 C         139.7111  145.6521  162.0268 C.3     1  UNL1        0.2898
     22 O         140.2565  145.1004  163.3106 O.3     1  UNL1       -0.4628
     23 H         142.3024  144.6517  159.9210 H       1  UNL1        0.1565
     24 C         140.9173  137.1765  164.1544 C.3     1  UNL1        0.0320
     25 C         139.5184  137.7106  164.0646 C.3     1  UNL1        0.0327
     26 C         138.6045  140.0444  160.3271 C.ar    1  UNL1        0.2250
     27 C         138.3594  141.5220  160.4068 C.ar    1  UNL1        0.0593
     28 C         138.4188  142.2218  161.7322 C.ar    1  UNL1        0.0254
     29 C         138.7234  141.4439  162.9780 C.ar    1  UNL1        0.0990
     30 N         138.7828  142.1436  164.3035 N.ar    1  UNL1       -0.2400
     31 C         139.0874  141.3657  165.5493 C.ar    1  UNL1        0.1281
     32 C         139.3326  139.8880  165.4697 C.ar    1  UNL1        0.1566
     33 F         139.6373  139.1101  166.7155 F       1  UNL1       -0.2028
     34 C         139.2732  139.1882  164.1442 C.ar    1  UNL1        0.0261
     35 C         138.9686  139.9662  162.8984 C.ar    1  UNL1        0.1002
     36 N         138.9092  139.2665  161.5729 N.ar    1  UNL1       -0.2104
     37 C         139.7690  138.6737  158.4523 C.3     1  UNL1        0.2542
     38 O         138.5451  139.3446  159.0017 O.3     1  UNL1       -0.4561
@<TRIPOS>BOND
     1    37    38    1
     2    38    26    1
     3    26    27   ar
     4    27    28   ar
     5    28    29   ar
     6    29    30   ar
     7    30    31   ar
     8    31    32   ar
     9    32    33    1
    10    32    34   ar
    11    34    25    1
    12    25    24    1
    13    24     1    1
    14     1     2    1
    15     2     3    1
    16     3     4    1
    17     4     9    1
    18     9    11    1
    19    11    12    1
    20    12    13   ar
    21    13    14   ar
    22    14    15   ar
    23    15    16   ar
    24    16    17   ar
    25    16    18    1
    26    18    19   am
    27    19    20    2
    28    19    21    1
    29    21    22    1
    30     4     5    1
    31     5     6    1
    32     4     7    1
    33     7     8    1
    34    34    35   ar
    35    35    36   ar
    36    36    26   ar
    37    35    29   ar
    38     6     1    1
    39     8     1    1
    40    17    12   ar
    41    22    15    1
    42     9    10    1
    43    18    23    1
