@<TRIPOS>MOLECULE
*****
 38 41 0 0 0
SMALL
GASTEIGER

@<TRIPOS>ATOM
      1 O         143.9056  139.3959  157.6778 O.2     1  UNL1       -0.2733
      2 C         143.0051  138.3325  157.1224 C.2     1  UNL1        0.2426
      3 N         141.8875  137.7840  157.9591 N.am    1  UNL1       -0.3018
      4 H         141.2965  137.0861  157.5946 H       1  UNL1        0.1495
      5 C         141.6704  138.2988  159.3512 C.3     1  UNL1        0.1035
      6 C         142.2912  138.0305  160.6901 C.3     1  UNL1        0.0933
      7 N         141.3634  139.0268  161.3199 N.3     1  UNL1       -0.2711
      8 C         140.7426  139.2951  159.9810 C.3     1  UNL1        0.0933
      9 C         141.1463  139.5416  162.7120 C.3     1  UNL1        0.0576
     10 C         140.1253  138.8945  163.6002 C.3     1  UNL1        0.0163
     11 C         139.9083  139.4093  164.9923 C.3     1  UNL1        0.0057
     12 C         140.7121  140.5712  165.4961 C.3     1  UNL1        0.0224
     13 C         141.7331  141.2183  164.6079 C.3     1  UNL1        0.0057
     14 C         141.9502  140.7035  163.2159 C.3     1  UNL1        0.0163
     15 C         140.4950  141.0859  166.8882 C.ar    1  UNL1       -0.0225
     16 C         140.9129  142.4816  167.2454 C.ar    1  UNL1       -0.0042
     17 C         140.6958  142.9963  168.6376 C.ar    1  UNL1        0.0008
     18 C         140.0608  142.1155  169.6724 C.ar    1  UNL1        0.0140
     19 C         139.6429  140.7198  169.3151 C.ar    1  UNL1        0.0008
     20 C         139.8600  140.2051  167.9231 C.ar    1  UNL1       -0.0042
     21 C         139.8437  142.6302  171.0645 C.2     1  UNL1        0.0729
     22 O         138.8019  143.6780  171.3227 O.co2   1  UNL1       -0.5446
     23 O         140.6684  142.0971  172.1984 O.co2   1  UNL1       -0.5446
     24 C         143.2222  137.8177  155.7304 C.3     1  UNL1        0.1759
     25 N         143.6099  136.3851  155.5125 N.am    1  UNL1       -0.2931
     26 C         142.5599  135.3140  155.5236 C.2     1  UNL1        0.2462
     27 O         141.1222  135.6754  155.7527 O.2     1  UNL1       -0.2701
     28 H         144.5535  136.1479  155.3622 H       1  UNL1        0.1502
     29 C         142.9476  133.8813  155.3057 C.ar    1  UNL1        0.0533
     30 C         142.6634  133.2192  153.9902 C.ar    1  UNL1        0.0045
     31 C         143.0510  131.7867  153.7723 C.ar    1  UNL1        0.0001
     32 C         143.7229  131.0163  154.8701 C.ar    1  UNL1        0.0039
     33 C         144.0071  131.6784  156.1856 C.ar    1  UNL1        0.0716
     34 C         143.6194  133.1109  156.4035 C.ar    1  UNL1        0.0084
     35 C         144.6790  130.9080  157.2834 C.3     1  UNL1        0.4186
     36 F         145.3509  130.1375  158.3811 F       1  UNL1       -0.1659
     37 F         143.6467  129.8270  157.1566 F       1  UNL1       -0.1659
     38 F         145.7113  131.9889  157.4102 F       1  UNL1       -0.1659
@<TRIPOS>UNITY_ATOM_ATTR
22 1
charge -1
@<TRIPOS>BOND
     1     1     2    2
     2     2    24    1
     3    24    25    1
     4    25    26   am
     5    26    27    2
     6    26    29    1
     7    29    30   ar
     8    30    31   ar
     9    31    32   ar
    10    32    33   ar
    11    33    35    1
    12    35    36    1
    13    35    37    1
    14    35    38    1
    15    33    34   ar
    16     2     3   am
    17     3     5    1
    18     5     6    1
    19     6     7    1
    20     9     7    1
    21     9    10    1
    22    10    11    1
    23    11    12    1
    24    12    15    1
    25    15    16   ar
    26    16    17   ar
    27    17    18   ar
    28    18    21    1
    29    21    22   ar
    30    21    23   ar
    31    18    19   ar
    32    19    20   ar
    33    12    13    1
    34    13    14    1
    35     7     8    1
    36    34    29   ar
    37     8     5    1
    38    14     9    1
    39    20    15   ar
    40    25    28    1
    41     3     4    1
@<TRIPOS>MOLECULE
*****
 38 41 0 0 0
SMALL
GASTEIGER

@<TRIPOS>ATOM
      1 O         137.3496  142.7820  157.3898 O.2     1  UNL1       -0.2733
      2 C         136.9621  141.3781  157.0305 C.2     1  UNL1        0.2426
      3 N         137.1829  140.2648  158.0111 N.am    1  UNL1       -0.3018
      4 H         136.9286  139.3434  157.7752 H       1  UNL1        0.1495
      5 C         137.7913  140.5552  159.3511 C.3     1  UNL1        0.1035
      6 C         138.8164  141.5232  159.8632 C.3     1  UNL1        0.0933
      7 N         138.6518  140.9660  161.2461 N.3     1  UNL1       -0.2711
      8 C         137.6267  139.9980  160.7340 C.3     1  UNL1        0.0933
      9 C         139.2602  141.2564  162.5860 C.3     1  UNL1        0.0576
     10 C         138.7675  142.4177  163.3976 C.3     1  UNL1        0.0163
     11 C         139.3759  142.7081  164.7376 C.3     1  UNL1        0.0057
     12 C         140.4770  141.8373  165.2659 C.3     1  UNL1        0.0224
     13 C         140.9698  140.6760  164.4543 C.3     1  UNL1        0.0057
     14 C         140.3614  140.3856  163.1144 C.3     1  UNL1        0.0163
     15 C         141.0854  142.1277  166.6058 C.ar    1  UNL1       -0.0225
     16 C         140.2275  142.6427  167.7233 C.ar    1  UNL1       -0.0042
     17 C         140.8360  142.9331  169.0633 C.ar    1  UNL1        0.0008
     18 C         142.3023  142.7086  169.2857 C.ar    1  UNL1        0.0140
     19 C         143.1602  142.1937  168.1682 C.ar    1  UNL1        0.0008
     20 C         142.5518  141.9032  166.8283 C.ar    1  UNL1       -0.0042
     21 C         142.9108  142.9991  170.6257 C.2     1  UNL1        0.0729
     22 O         142.2011  142.5790  171.8786 O.co2   1  UNL1       -0.5446
     23 O         144.2290  143.7096  170.7127 O.co2   1  UNL1       -0.5446
     24 C         136.3537  141.0877  155.6905 C.3     1  UNL1        0.1759
     25 N         134.8785  141.2633  155.4826 N.am    1  UNL1       -0.2931
     26 C         133.9056  140.4766  156.3100 C.2     1  UNL1        0.2462
     27 O         134.4078  139.5143  157.3452 O.2     1  UNL1       -0.2701
     28 H         134.5489  141.8949  154.8032 H       1  UNL1        0.1502
     29 C         132.4305  140.6522  156.1020 C.ar    1  UNL1        0.0533
     30 C         131.9263  141.6959  155.1500 C.ar    1  UNL1        0.0045
     31 C         130.4512  141.8714  154.9421 C.ar    1  UNL1        0.0001
     32 C         129.4803  141.0033  155.6863 C.ar    1  UNL1        0.0039
     33 C         129.9845  139.9597  156.6384 C.ar    1  UNL1        0.0716
     34 C         131.4596  139.7841  156.8462 C.ar    1  UNL1        0.0084
     35 C         129.0137  139.0915  157.3826 C.3     1  UNL1        0.4186
     36 F         128.0428  138.2234  158.1267 F       1  UNL1       -0.1659
     37 F         128.1758  140.2960  157.6944 F       1  UNL1       -0.1659
     38 F         129.8516  137.8871  157.0707 F       1  UNL1       -0.1659
@<TRIPOS>UNITY_ATOM_ATTR
22 1
charge -1
@<TRIPOS>BOND
     1     1     2    2
     2     2    24    1
     3    24    25    1
     4    25    26   am
     5    26    27    2
     6    26    29    1
     7    29    30   ar
     8    30    31   ar
     9    31    32   ar
    10    32    33   ar
    11    33    35    1
    12    35    36    1
    13    35    37    1
    14    35    38    1
    15    33    34   ar
    16     2     3   am
    17     3     5    1
    18     5     6    1
    19     6     7    1
    20     9     7    1
    21     9    10    1
    22    10    11    1
    23    11    12    1
    24    12    15    1
    25    15    16   ar
    26    16    17   ar
    27    17    18   ar
    28    18    21    1
    29    21    22   ar
    30    21    23   ar
    31    18    19   ar
    32    19    20   ar
    33    12    13    1
    34    13    14    1
    35     7     8    1
    36    34    29   ar
    37     8     5    1
    38    14     9    1
    39    20    15   ar
    40    25    28    1
    41     3     4    1
@<TRIPOS>MOLECULE
*****
 38 41 0 0 0
SMALL
GASTEIGER

@<TRIPOS>ATOM
      1 O         137.3480  142.7913  157.3532 O.2     1  UNL1       -0.2733
      2 C         136.9542  141.3890  156.9947 C.2     1  UNL1        0.2426
      3 N         137.1607  140.2769  157.9798 N.am    1  UNL1       -0.3018
      4 H         136.9023  139.3565  157.7444 H       1  UNL1        0.1495
      5 C         137.7610  140.5670  159.3235 C.3     1  UNL1        0.1035
      6 C         138.7188  141.5898  159.8588 C.3     1  UNL1        0.0933
      7 N         138.6101  140.9773  161.2237 N.3     1  UNL1       -0.2711
      8 C         137.6523  139.9545  160.6884 C.3     1  UNL1        0.0933
      9 C         139.2104  141.2674  162.5673 C.3     1  UNL1        0.0576
     10 C         138.3258  141.6454  163.7182 C.3     1  UNL1        0.0163
     11 C         138.9262  141.9355  165.0619 C.3     1  UNL1        0.0057
     12 C         140.4111  141.8477  165.2546 C.3     1  UNL1        0.0224
     13 C         141.2957  141.4697  164.1037 C.3     1  UNL1        0.0057
     14 C         140.6954  141.1796  162.7601 C.3     1  UNL1        0.0163
     15 C         141.0115  142.1378  166.5983 C.ar    1  UNL1       -0.0225
     16 C         142.4563  141.8284  166.8568 C.ar    1  UNL1       -0.0042
     17 C         143.0566  142.1186  168.2006 C.ar    1  UNL1        0.0008
     18 C         142.2121  142.7181  169.2856 C.ar    1  UNL1        0.0140
     19 C         140.7673  143.0274  169.0271 C.ar    1  UNL1        0.0008
     20 C         140.1670  142.7373  167.6834 C.ar    1  UNL1       -0.0042
     21 C         142.8124  143.0082  170.6293 C.2     1  UNL1        0.0729
     22 O         144.0962  143.7778  170.7269 O.co2   1  UNL1       -0.5446
     23 O         142.1289  142.5288  171.8755 O.co2   1  UNL1       -0.5446
     24 C         136.3539  141.0989  155.6510 C.3     1  UNL1        0.1759
     25 N         134.8782  141.2634  155.4375 N.am    1  UNL1       -0.2931
     26 C         133.9080  140.4740  156.2655 C.2     1  UNL1        0.2462
     27 O         134.4133  139.5202  157.3070 O.2     1  UNL1       -0.2701
     28 H         134.5466  141.8895  154.7539 H       1  UNL1        0.1502
     29 C         132.4324  140.6385  156.0519 C.ar    1  UNL1        0.0533
     30 C         131.4749  139.6393  156.6303 C.ar    1  UNL1        0.0045
     31 C         129.9993  139.8038  156.4168 C.ar    1  UNL1        0.0001
     32 C         129.4813  140.9676  155.6248 C.ar    1  UNL1        0.0039
     33 C         130.4388  141.9669  155.0464 C.ar    1  UNL1        0.0716
     34 C         131.9143  141.8023  155.2600 C.ar    1  UNL1        0.0084
     35 C         129.9208  143.1307  154.2544 C.3     1  UNL1        0.4186
     36 F         129.4027  144.2945  153.4625 F       1  UNL1       -0.1659
     37 F         129.8258  143.9437  155.5114 F       1  UNL1       -0.1659
     38 F         130.0158  142.3176  152.9975 F       1  UNL1       -0.1659
@<TRIPOS>UNITY_ATOM_ATTR
22 1
charge -1
@<TRIPOS>BOND
     1     1     2    2
     2     2    24    1
     3    24    25    1
     4    25    26   am
     5    26    27    2
     6    26    29    1
     7    29    30   ar
     8    30    31   ar
     9    31    32   ar
    10    32    33   ar
    11    33    35    1
    12    35    36    1
    13    35    37    1
    14    35    38    1
    15    33    34   ar
    16     2     3   am
    17     3     5    1
    18     5     6    1
    19     6     7    1
    20     9     7    1
    21     9    10    1
    22    10    11    1
    23    11    12    1
    24    12    15    1
    25    15    16   ar
    26    16    17   ar
    27    17    18   ar
    28    18    21    1
    29    21    22   ar
    30    21    23   ar
    31    18    19   ar
    32    19    20   ar
    33    12    13    1
    34    13    14    1
    35     7     8    1
    36    34    29   ar
    37     8     5    1
    38    14     9    1
    39    20    15   ar
    40    25    28    1
    41     3     4    1
@<TRIPOS>MOLECULE
*****
 38 41 0 0 0
SMALL
GASTEIGER

@<TRIPOS>ATOM
      1 O         142.3086  139.2786  157.2628 O.2     1  UNL1       -0.2733
      2 C         142.8592  137.8858  157.1785 C.2     1  UNL1        0.2426
      3 N         143.0748  137.0876  158.4300 N.am    1  UNL1       -0.3018
      4 H         143.4362  136.1735  158.3747 H       1  UNL1        0.1495
      5 C         142.7397  137.6821  159.7659 C.3     1  UNL1        0.1035
      6 C         141.5734  138.4405  160.3268 C.3     1  UNL1        0.0933
      7 N         142.2658  138.5229  161.6549 N.3     1  UNL1       -0.2711
      8 C         143.4321  137.7645  161.0940 C.3     1  UNL1        0.0933
      9 C         141.9306  139.1173  162.9907 C.3     1  UNL1        0.0576
     10 C         141.7272  138.2249  164.1790 C.3     1  UNL1        0.0163
     11 C         141.3921  138.8195  165.5148 C.3     1  UNL1        0.0057
     12 C         141.2604  140.3064  165.6622 C.3     1  UNL1        0.0224
     13 C         141.4638  141.1988  164.4738 C.3     1  UNL1        0.0057
     14 C         141.7989  140.6043  163.1381 C.3     1  UNL1        0.0163
     15 C         140.9253  140.9009  166.9979 C.ar    1  UNL1       -0.0225
     16 C         140.3908  140.0281  168.0945 C.ar    1  UNL1       -0.0042
     17 C         140.0556  140.6226  169.4303 C.ar    1  UNL1        0.0008
     18 C         140.2550  142.0899  169.6695 C.ar    1  UNL1        0.0140
     19 C         140.7895  142.9627  168.5729 C.ar    1  UNL1        0.0008
     20 C         141.1246  142.3682  167.2371 C.ar    1  UNL1       -0.0042
     21 C         139.9199  142.6845  171.0052 C.2     1  UNL1        0.0729
     22 O         138.9162  143.7950  171.1014 O.co2   1  UNL1       -0.5446
     23 O         140.5886  142.1685  172.2449 O.co2   1  UNL1       -0.5446
     24 C         143.1943  137.2913  155.8428 C.3     1  UNL1        0.1759
     25 N         143.4682  135.8213  155.7235 N.am    1  UNL1       -0.2931
     26 C         142.3279  134.8496  155.6488 C.2     1  UNL1        0.2462
     27 O         140.9138  135.3479  155.6935 O.2     1  UNL1       -0.2701
     28 H         144.3963  135.4943  155.6942 H       1  UNL1        0.1502
     29 C         142.6018  133.3796  155.5296 C.ar    1  UNL1        0.0533
     30 C         144.0095  132.8693  155.6185 C.ar    1  UNL1        0.0045
     31 C         144.2833  131.3994  155.4993 C.ar    1  UNL1        0.0001
     32 C         143.1494  130.4397  155.2910 C.ar    1  UNL1        0.0039
     33 C         141.7417  130.9500  155.2020 C.ar    1  UNL1        0.0716
     34 C         141.4679  132.4200  155.3213 C.ar    1  UNL1        0.0084
     35 C         140.6078  129.9904  154.9938 C.3     1  UNL1        0.4186
     36 F         139.4739  129.0308  154.7855 F       1  UNL1       -0.1659
     37 F         139.6881  131.1397  154.7052 F       1  UNL1       -0.1659
     38 F         141.5275  128.8411  155.2823 F       1  UNL1       -0.1659
@<TRIPOS>UNITY_ATOM_ATTR
22 1
charge -1
@<TRIPOS>BOND
     1     1     2    2
     2     2    24    1
     3    24    25    1
     4    25    26   am
     5    26    27    2
     6    26    29    1
     7    29    30   ar
     8    30    31   ar
     9    31    32   ar
    10    32    33   ar
    11    33    35    1
    12    35    36    1
    13    35    37    1
    14    35    38    1
    15    33    34   ar
    16     2     3   am
    17     3     5    1
    18     5     6    1
    19     6     7    1
    20     9     7    1
    21     9    10    1
    22    10    11    1
    23    11    12    1
    24    12    15    1
    25    15    16   ar
    26    16    17   ar
    27    17    18   ar
    28    18    21    1
    29    21    22   ar
    30    21    23   ar
    31    18    19   ar
    32    19    20   ar
    33    12    13    1
    34    13    14    1
    35     7     8    1
    36    34    29   ar
    37     8     5    1
    38    14     9    1
    39    20    15   ar
    40    25    28    1
    41     3     4    1
@<TRIPOS>MOLECULE
*****
 38 41 0 0 0
SMALL
GASTEIGER

@<TRIPOS>ATOM
      1 O         142.1509  143.9985  156.8628 O.2     1  UNL1       -0.2733
      2 C         140.8256  144.2582  156.2099 C.2     1  UNL1        0.2426
      3 N         139.5634  144.1756  157.0161 N.am    1  UNL1       -0.3018
      4 H         138.6936  144.3461  156.5876 H       1  UNL1        0.1495
      5 C         139.6264  143.8333  158.4752 C.3     1  UNL1        0.1035
      6 C         139.1068  142.7117  159.3249 C.3     1  UNL1        0.0933
      7 N         139.7155  143.3491  160.5386 N.3     1  UNL1       -0.2711
      8 C         140.2351  144.4708  159.6890 C.3     1  UNL1        0.0933
      9 C         139.7784  143.0068  161.9976 C.3     1  UNL1        0.0576
     10 C         140.8702  142.1164  162.5127 C.3     1  UNL1        0.0163
     11 C         140.9331  141.7740  163.9718 C.3     1  UNL1        0.0057
     12 C         139.9044  142.3221  164.9158 C.3     1  UNL1        0.0224
     13 C         138.8126  143.2125  164.4008 C.3     1  UNL1        0.0057
     14 C         138.7496  143.5549  162.9417 C.3     1  UNL1        0.0163
     15 C         139.9673  141.9798  166.3748 C.ar    1  UNL1       -0.0225
     16 C         140.3382  143.0325  167.3769 C.ar    1  UNL1       -0.0042
     17 C         140.4012  142.6901  168.8360 C.ar    1  UNL1        0.0008
     18 C         140.0933  141.2950  169.2929 C.ar    1  UNL1        0.0140
     19 C         139.7224  140.2422  168.2908 C.ar    1  UNL1        0.0008
     20 C         139.6594  140.5846  166.8318 C.ar    1  UNL1       -0.0042
     21 C         140.1562  140.9526  170.7520 C.2     1  UNL1        0.0729
     22 O         139.6994  139.6050  171.2265 O.co2   1  UNL1       -0.5446
     23 O         140.6761  141.9578  171.7365 O.co2   1  UNL1       -0.5446
     24 C         140.7625  144.6005  154.7509 C.3     1  UNL1        0.1759
     25 N         140.8896  146.0285  154.3094 N.am    1  UNL1       -0.2931
     26 C         139.7559  146.9855  154.5302 C.2     1  UNL1        0.2462
     27 O         138.4952  146.5147  155.1927 O.2     1  UNL1       -0.2701
     28 H         141.7171  146.3375  153.8746 H       1  UNL1        0.1502
     29 C         139.8830  148.4135  154.0887 C.ar    1  UNL1        0.0533
     30 C         140.6044  148.7435  152.8157 C.ar    1  UNL1        0.0045
     31 C         140.7314  150.1714  152.3742 C.ar    1  UNL1        0.0001
     32 C         140.1370  151.2692  153.2057 C.ar    1  UNL1        0.0039
     33 C         139.4156  150.9392  154.4787 C.ar    1  UNL1        0.0716
     34 C         139.2886  149.5113  154.9202 C.ar    1  UNL1        0.0084
     35 C         138.8212  152.0371  155.3102 C.3     1  UNL1        0.4186
     36 F         138.2268  153.1349  156.1418 F       1  UNL1       -0.1659
     37 F         138.2549  152.6678  154.0727 F       1  UNL1       -0.1659
     38 F         139.3876  151.4064  156.5478 F       1  UNL1       -0.1659
@<TRIPOS>UNITY_ATOM_ATTR
22 1
charge -1
@<TRIPOS>BOND
     1     1     2    2
     2     2    24    1
     3    24    25    1
     4    25    26   am
     5    26    27    2
     6    26    29    1
     7    29    30   ar
     8    30    31   ar
     9    31    32   ar
    10    32    33   ar
    11    33    35    1
    12    35    36    1
    13    35    37    1
    14    35    38    1
    15    33    34   ar
    16     2     3   am
    17     3     5    1
    18     5     6    1
    19     6     7    1
    20     9     7    1
    21     9    10    1
    22    10    11    1
    23    11    12    1
    24    12    15    1
    25    15    16   ar
    26    16    17   ar
    27    17    18   ar
    28    18    21    1
    29    21    22   ar
    30    21    23   ar
    31    18    19   ar
    32    19    20   ar
    33    12    13    1
    34    13    14    1
    35     7     8    1
    36    34    29   ar
    37     8     5    1
    38    14     9    1
    39    20    15   ar
    40    25    28    1
    41     3     4    1
@<TRIPOS>MOLECULE
*****
 38 41 0 0 0
SMALL
GASTEIGER

@<TRIPOS>ATOM
      1 O         144.2497  139.6435  157.1797 O.2     1  UNL1       -0.2733
      2 C         143.3330  138.6461  156.5357 C.2     1  UNL1        0.2426
      3 N         142.1896  138.0663  157.3144 N.am    1  UNL1       -0.3018
      4 H         141.5879  137.4117  156.8917 H       1  UNL1        0.1495
      5 C         141.9629  138.4839  158.7372 C.3     1  UNL1        0.1035
      6 C         142.5216  138.0693  160.0661 C.3     1  UNL1        0.0933
      7 N         141.6424  139.0744  160.7493 N.3     1  UNL1       -0.2711
      8 C         141.0837  139.4890  159.4204 C.3     1  UNL1        0.0933
      9 C         141.4157  139.4919  162.1721 C.3     1  UNL1        0.0576
     10 C         142.2733  140.5582  162.7865 C.3     1  UNL1        0.0163
     11 C         142.0466  140.9758  164.2093 C.3     1  UNL1        0.0057
     12 C         140.9624  140.3270  165.0177 C.3     1  UNL1        0.0224
     13 C         140.1048  139.2607  164.4032 C.3     1  UNL1        0.0057
     14 C         140.3314  138.8432  162.9805 C.3     1  UNL1        0.0163
     15 C         140.7357  140.7445  166.4404 C.ar    1  UNL1       -0.0225
     16 C         139.8030  139.9584  167.3133 C.ar    1  UNL1       -0.0042
     17 C         139.5763  140.3760  168.7361 C.ar    1  UNL1        0.0008
     18 C         140.2825  141.5797  169.2860 C.ar    1  UNL1        0.0140
     19 C         141.2152  142.3658  168.4131 C.ar    1  UNL1        0.0008
     20 C         141.4419  141.9483  166.9904 C.ar    1  UNL1       -0.0042
     21 C         140.0559  141.9973  170.7088 C.2     1  UNL1        0.0729
     22 O         139.2515  143.2269  171.0105 O.co2   1  UNL1       -0.5446
     23 O         140.6336  141.1852  171.8298 O.co2   1  UNL1       -0.5446
     24 C         143.5596  138.2285  155.1130 C.3     1  UNL1        0.1759
     25 N         142.8763  137.0078  154.5717 N.am    1  UNL1       -0.2931
     26 C         143.1181  135.6699  155.2053 C.2     1  UNL1        0.2462
     27 O         144.0432  135.5526  156.3802 O.2     1  UNL1       -0.2701
     28 H         142.2691  137.0847  153.8006 H       1  UNL1        0.1502
     29 C         142.4348  134.4491  154.6640 C.ar    1  UNL1        0.0533
     30 C         141.6300  134.5379  153.4013 C.ar    1  UNL1        0.0045
     31 C         140.9468  133.3172  152.8601 C.ar    1  UNL1        0.0001
     32 C         141.0682  132.0077  153.5815 C.ar    1  UNL1        0.0039
     33 C         141.8730  131.9189  154.8442 C.ar    1  UNL1        0.0716
     34 C         142.5562  133.1396  155.3855 C.ar    1  UNL1        0.0084
     35 C         141.9944  130.6095  155.5657 C.3     1  UNL1        0.4186
     36 F         142.1159  129.3000  156.2872 F       1  UNL1       -0.1659
     37 F         140.6076  130.2403  155.1292 F       1  UNL1       -0.1659
     38 F         143.3812  130.9786  156.0022 F       1  UNL1       -0.1659
@<TRIPOS>UNITY_ATOM_ATTR
22 1
charge -1
@<TRIPOS>BOND
     1     1     2    2
     2     2    24    1
     3    24    25    1
     4    25    26   am
     5    26    27    2
     6    26    29    1
     7    29    30   ar
     8    30    31   ar
     9    31    32   ar
    10    32    33   ar
    11    33    35    1
    12    35    36    1
    13    35    37    1
    14    35    38    1
    15    33    34   ar
    16     2     3   am
    17     3     5    1
    18     5     6    1
    19     6     7    1
    20     9     7    1
    21     9    10    1
    22    10    11    1
    23    11    12    1
    24    12    15    1
    25    15    16   ar
    26    16    17   ar
    27    17    18   ar
    28    18    21    1
    29    21    22   ar
    30    21    23   ar
    31    18    19   ar
    32    19    20   ar
    33    12    13    1
    34    13    14    1
    35     7     8    1
    36    34    29   ar
    37     8     5    1
    38    14     9    1
    39    20    15   ar
    40    25    28    1
    41     3     4    1
@<TRIPOS>MOLECULE
*****
 38 41 0 0 0
SMALL
GASTEIGER

@<TRIPOS>ATOM
      1 O         142.4081  141.6799  156.5540 O.2     1  UNL1       -0.2733
      2 C         142.8222  143.0806  156.2127 C.2     1  UNL1        0.2426
      3 N         142.9775  144.1027  157.2995 N.am    1  UNL1       -0.3018
      4 H         143.2492  145.0220  157.0754 H       1  UNL1        0.1495
      5 C         142.7187  143.7241  158.7277 C.3     1  UNL1        0.1035
      6 C         143.4296  142.8854  159.7481 C.3     1  UNL1        0.0933
      7 N         142.3529  143.1886  160.7475 N.3     1  UNL1       -0.2711
      8 C         141.6420  144.0272  159.7271 C.3     1  UNL1        0.0933
      9 C         142.0942  142.8100  162.1756 C.3     1  UNL1        0.0576
     10 C         142.4974  143.7385  163.2825 C.3     1  UNL1        0.0163
     11 C         142.2386  143.3598  164.7108 C.3     1  UNL1        0.0057
     12 C         141.5768  142.0527  165.0320 C.3     1  UNL1        0.0224
     13 C         141.1737  141.1241  163.9251 C.3     1  UNL1        0.0057
     14 C         141.4324  141.5027  162.4969 C.3     1  UNL1        0.0163
     15 C         141.3181  141.6741  166.4602 C.ar    1  UNL1       -0.0225
     16 C         140.5984  142.6252  167.3697 C.ar    1  UNL1       -0.0042
     17 C         140.3397  142.2465  168.7979 C.ar    1  UNL1        0.0008
     18 C         140.8008  140.9167  169.3166 C.ar    1  UNL1        0.0140
     19 C         141.5206  139.9656  168.4070 C.ar    1  UNL1        0.0008
     20 C         141.7792  140.3442  166.9789 C.ar    1  UNL1       -0.0042
     21 C         140.5421  140.5381  170.7448 C.2     1  UNL1        0.0729
     22 O         141.3873  141.1187  171.8395 O.co2   1  UNL1       -0.5446
     23 O         139.4383  139.5787  171.0782 O.co2   1  UNL1       -0.5446
     24 C         143.0809  143.4592  154.7845 C.3     1  UNL1        0.1759
     25 N         142.6595  144.8067  154.2777 N.am    1  UNL1       -0.2931
     26 C         141.2607  145.2935  154.5152 C.2     1  UNL1        0.2462
     27 O         140.2834  144.4330  155.2596 O.2     1  UNL1       -0.2701
     28 H         143.3010  145.3715  153.7891 H       1  UNL1        0.1502
     29 C         140.8393  146.6410  154.0084 C.ar    1  UNL1        0.0533
     30 C         141.2216  147.0749  152.6244 C.ar    1  UNL1        0.0045
     31 C         140.8002  148.4223  152.1176 C.ar    1  UNL1        0.0001
     32 C         139.9965  149.3358  152.9948 C.ar    1  UNL1        0.0039
     33 C         139.6143  148.9020  154.3789 C.ar    1  UNL1        0.0716
     34 C         140.0357  147.5545  154.8856 C.ar    1  UNL1        0.0084
     35 C         138.8106  149.8155  155.2561 C.3     1  UNL1        0.4186
     36 F         138.0069  150.7290  156.1334 F       1  UNL1       -0.1659
     37 F         138.7555  148.7523  156.3128 F       1  UNL1       -0.1659
     38 F         138.8657  150.8787  154.1994 F       1  UNL1       -0.1659
@<TRIPOS>UNITY_ATOM_ATTR
22 1
charge -1
@<TRIPOS>BOND
     1     1     2    2
     2     2    24    1
     3    24    25    1
     4    25    26   am
     5    26    27    2
     6    26    29    1
     7    29    30   ar
     8    30    31   ar
     9    31    32   ar
    10    32    33   ar
    11    33    35    1
    12    35    36    1
    13    35    37    1
    14    35    38    1
    15    33    34   ar
    16     2     3   am
    17     3     5    1
    18     5     6    1
    19     6     7    1
    20     9     7    1
    21     9    10    1
    22    10    11    1
    23    11    12    1
    24    12    15    1
    25    15    16   ar
    26    16    17   ar
    27    17    18   ar
    28    18    21    1
    29    21    22   ar
    30    21    23   ar
    31    18    19   ar
    32    19    20   ar
    33    12    13    1
    34    13    14    1
    35     7     8    1
    36    34    29   ar
    37     8     5    1
    38    14     9    1
    39    20    15   ar
    40    25    28    1
    41     3     4    1
@<TRIPOS>MOLECULE
*****
 38 41 0 0 0
SMALL
GASTEIGER

@<TRIPOS>ATOM
      1 O         147.0273  142.9360  157.9187 O.2     1  UNL1       -0.2733
      2 C         146.1513  142.2527  156.9109 C.2     1  UNL1        0.2426
      3 N         144.8319  141.6767  157.3319 N.am    1  UNL1       -0.3018
      4 H         144.2569  141.2283  156.6704 H       1  UNL1        0.1495
      5 C         144.3884  141.7839  158.7609 C.3     1  UNL1        0.1035
      6 C         144.0567  140.8018  159.8450 C.3     1  UNL1        0.0933
      7 N         143.7613  141.9355  160.7818 N.3     1  UNL1       -0.2711
      8 C         144.0931  142.9176  159.6977 C.3     1  UNL1        0.0933
      9 C         143.3179  142.0426  162.2107 C.3     1  UNL1        0.0576
     10 C         144.2624  142.5660  163.2518 C.3     1  UNL1        0.0163
     11 C         143.8189  142.6731  164.6808 C.3     1  UNL1        0.0057
     12 C         142.4310  142.2569  165.0686 C.3     1  UNL1        0.0224
     13 C         141.4864  141.7336  164.0274 C.3     1  UNL1        0.0057
     14 C         141.9299  141.6264  162.5985 C.3     1  UNL1        0.0163
     15 C         141.9875  142.3641  166.4975 C.ar    1  UNL1       -0.0225
     16 C         142.9696  142.1310  167.6070 C.ar    1  UNL1       -0.0042
     17 C         142.5261  142.2381  169.0360 C.ar    1  UNL1        0.0008
     18 C         141.1006  142.5784  169.3554 C.ar    1  UNL1        0.0140
     19 C         140.1185  142.8116  168.2458 C.ar    1  UNL1        0.0008
     20 C         140.5619  142.7044  166.8169 C.ar    1  UNL1       -0.0042
     21 C         140.6571  142.6856  170.7843 C.2     1  UNL1        0.0729
     22 O         139.3469  143.3361  171.1162 O.co2   1  UNL1       -0.5446
     23 O         141.5239  142.1423  171.8814 O.co2   1  UNL1       -0.5446
     24 C         146.5947  142.1455  155.4820 C.3     1  UNL1        0.1759
     25 N         148.0162  142.4506  155.1128 N.am    1  UNL1       -0.2931
     26 C         148.5592  142.0048  153.7876 C.2     1  UNL1        0.2462
     27 O         147.6807  141.2539  152.8313 O.2     1  UNL1       -0.2701
     28 H         148.5929  142.9434  155.7404 H       1  UNL1        0.1502
     29 C         149.9808  142.3099  153.4184 C.ar    1  UNL1        0.0533
     30 C         150.3599  143.6908  152.9721 C.ar    1  UNL1        0.0045
     31 C         151.7814  143.9958  152.6030 C.ar    1  UNL1        0.0001
     32 C         152.8237  142.9199  152.6802 C.ar    1  UNL1        0.0039
     33 C         152.4446  141.5390  153.1266 C.ar    1  UNL1        0.0716
     34 C         151.0231  141.2340  153.4957 C.ar    1  UNL1        0.0084
     35 C         153.4869  140.4631  153.2038 C.3     1  UNL1        0.4186
     36 F         154.5293  139.3873  153.2811 F       1  UNL1       -0.1659
     37 F         152.4084  139.4223  153.2621 F       1  UNL1       -0.1659
     38 F         154.5655  141.5039  153.1456 F       1  UNL1       -0.1659
@<TRIPOS>UNITY_ATOM_ATTR
22 1
charge -1
@<TRIPOS>BOND
     1     1     2    2
     2     2    24    1
     3    24    25    1
     4    25    26   am
     5    26    27    2
     6    26    29    1
     7    29    30   ar
     8    30    31   ar
     9    31    32   ar
    10    32    33   ar
    11    33    35    1
    12    35    36    1
    13    35    37    1
    14    35    38    1
    15    33    34   ar
    16     2     3   am
    17     3     5    1
    18     5     6    1
    19     6     7    1
    20     9     7    1
    21     9    10    1
    22    10    11    1
    23    11    12    1
    24    12    15    1
    25    15    16   ar
    26    16    17   ar
    27    17    18   ar
    28    18    21    1
    29    21    22   ar
    30    21    23   ar
    31    18    19   ar
    32    19    20   ar
    33    12    13    1
    34    13    14    1
    35     7     8    1
    36    34    29   ar
    37     8     5    1
    38    14     9    1
    39    20    15   ar
    40    25    28    1
    41     3     4    1
@<TRIPOS>MOLECULE
*****
 38 41 0 0 0
SMALL
GASTEIGER

@<TRIPOS>ATOM
      1 O         135.8881  140.3663  157.6101 O.2     1  UNL1       -0.2733
      2 C         136.8812  140.9537  156.6516 C.2     1  UNL1        0.2426
      3 N         138.1592  141.5471  157.1657 N.am    1  UNL1       -0.3018
      4 H         138.8110  141.9327  156.5366 H       1  UNL1        0.1495
      5 C         138.4442  141.5532  158.6384 C.3     1  UNL1        0.1035
      6 C         138.7717  142.6103  159.6510 C.3     1  UNL1        0.0933
      7 N         138.8474  141.5618  160.7211 N.3     1  UNL1       -0.2711
      8 C         138.5199  140.5047  159.7085 C.3     1  UNL1        0.0933
      9 C         139.1324  141.5679  162.1937 C.3     1  UNL1        0.0576
     10 C         138.0024  141.4854  163.1767 C.3     1  UNL1        0.0163
     11 C         138.2875  141.4915  164.6494 C.3     1  UNL1        0.0057
     12 C         139.7025  141.5801  165.1390 C.3     1  UNL1        0.0224
     13 C         140.8325  141.6626  164.1560 C.3     1  UNL1        0.0057
     14 C         140.5475  141.6565  162.6834 C.3     1  UNL1        0.0163
     15 C         139.9875  141.5862  166.6116 C.ar    1  UNL1       -0.0225
     16 C         140.3845  142.8619  167.2934 C.ar    1  UNL1       -0.0042
     17 C         140.6696  142.8679  168.7662 C.ar    1  UNL1        0.0008
     18 C         140.5576  141.5983  169.5570 C.ar    1  UNL1        0.0140
     19 C         140.1606  140.3225  168.8751 C.ar    1  UNL1        0.0008
     20 C         139.8755  140.3165  167.4025 C.ar    1  UNL1       -0.0042
     21 C         140.8426  141.6043  171.0297 C.2     1  UNL1        0.0729
     22 O         141.9150  140.7175  171.5897 O.co2   1  UNL1       -0.5446
     23 O         140.0553  142.4972  171.9423 O.co2   1  UNL1       -0.5446
     24 C         136.5962  140.9477  155.1789 C.3     1  UNL1        0.1759
     25 N         135.3519  141.5998  154.6531 N.am    1  UNL1       -0.2931
     26 C         134.0326  140.8942  154.7602 C.2     1  UNL1        0.2462
     27 O         133.9576  139.5363  155.3931 O.2     1  UNL1       -0.2701
     28 H         135.4011  142.4911  154.2377 H       1  UNL1        0.1502
     29 C         132.7883  141.5463  154.2344 C.ar    1  UNL1        0.0533
     30 C         132.7369  142.0292  152.8152 C.ar    1  UNL1        0.0045
     31 C         131.4927  142.6813  152.2894 C.ar    1  UNL1        0.0001
     32 C         130.2997  142.8506  153.1829 C.ar    1  UNL1        0.0039
     33 C         130.3511  142.3678  154.6021 C.ar    1  UNL1        0.0716
     34 C         131.5954  141.7157  155.1278 C.ar    1  UNL1        0.0084
     35 C         129.1582  142.5371  155.4956 C.3     1  UNL1        0.4186
     36 F         127.9653  142.7065  156.3890 F       1  UNL1       -0.1659
     37 F         128.7717  141.1087  155.2503 F       1  UNL1       -0.1659
     38 F         129.5446  143.9656  155.7408 F       1  UNL1       -0.1659
@<TRIPOS>UNITY_ATOM_ATTR
22 1
charge -1
@<TRIPOS>BOND
     1     1     2    2
     2     2    24    1
     3    24    25    1
     4    25    26   am
     5    26    27    2
     6    26    29    1
     7    29    30   ar
     8    30    31   ar
     9    31    32   ar
    10    32    33   ar
    11    33    35    1
    12    35    36    1
    13    35    37    1
    14    35    38    1
    15    33    34   ar
    16     2     3   am
    17     3     5    1
    18     5     6    1
    19     6     7    1
    20     9     7    1
    21     9    10    1
    22    10    11    1
    23    11    12    1
    24    12    15    1
    25    15    16   ar
    26    16    17   ar
    27    17    18   ar
    28    18    21    1
    29    21    22   ar
    30    21    23   ar
    31    18    19   ar
    32    19    20   ar
    33    12    13    1
    34    13    14    1
    35     7     8    1
    36    34    29   ar
    37     8     5    1
    38    14     9    1
    39    20    15   ar
    40    25    28    1
    41     3     4    1
