@<TRIPOS>MOLECULE
*****
 32 36 0 0 0
SMALL
GASTEIGER

@<TRIPOS>ATOM
      1 C         141.3710  142.1937  168.0109 C.ar    1  UNL1        0.1675
      2 N         140.2596  142.2215  167.0037 N.ar    1  UNL1       -0.2120
      3 C         140.5691  142.4300  165.5509 C.ar    1  UNL1        0.1318
      4 C         141.9900  142.6108  165.1052 C.ar    1  UNL1        0.0491
      5 C         142.2995  142.8193  163.6524 C.ar    1  UNL1        0.0041
      6 C         143.7202  143.0000  163.2066 C.ar    1  UNL1        0.0002
      7 C         144.8315  142.9723  164.2137 C.ar    1  UNL1        0.0015
      8 C         144.5220  142.7637  165.6665 C.ar    1  UNL1        0.0192
      9 C         143.1012  142.5830  166.1123 C.ar    1  UNL1        0.0856
     10 N         142.7917  142.3745  167.5651 N.ar    1  UNL1       -0.2263
     11 C         141.7720  139.4173  169.6783 C.3     1  UNL1        0.0558
     12 C         141.2458  140.7090  170.2301 C.ar    1  UNL1        0.1036
     13 N         140.8115  140.9513  171.6453 N.ar    1  UNL1       -0.0816
     14 O         140.3588  142.3772  171.7535 O.2     1  UNL1       -0.3580
     15 C         140.5133  143.0163  170.4052 C.ar    1  UNL1        0.1573
     16 C         140.1784  144.4368  170.0592 C.3     1  UNL1        0.0755
     17 C         141.0615  141.9852  169.4637 C.ar    1  UNL1        0.0854
     18 C         141.1881  142.8470  162.6452 C.ar    1  UNL1        0.0001
     19 C         140.7702  141.5829  161.9545 C.ar    1  UNL1        0.0000
     20 C         139.6589  141.6106  160.9473 C.ar    1  UNL1        0.0000
     21 C         138.9655  142.9026  160.6311 C.ar    1  UNL1        0.0000
     22 C         139.3834  144.1668  161.3219 C.ar    1  UNL1        0.0000
     23 C         140.4947  144.1390  162.3290 C.ar    1  UNL1        0.0000
     24 N         139.4579  142.4578  164.5438 N.pl3   1  UNL1       -0.3131
     25 H         139.5280  143.0346  163.7491 H       1  UNL1        0.1485
     26 C         138.2396  141.6065  164.7475 C.3     1  UNL1        0.1348
     27 C         138.3800  140.1214  164.9042 C.ar    1  UNL1        0.0788
     28 C         138.0371  139.4694  166.2108 C.ar    1  UNL1        0.0165
     29 C         138.1775  137.9842  166.3676 C.ar    1  UNL1        0.0029
     30 C         138.6608  137.1511  165.2177 C.ar    1  UNL1        0.0207
     31 C         139.0037  137.8031  163.9110 C.ar    1  UNL1        0.0985
     32 N         138.8633  139.2883  163.7543 N.ar    1  UNL1       -0.2464
@<TRIPOS>BOND
     1    11    12    1
     2    12    13   ar
     3    13    14   ar
     4    14    15   ar
     5    15    16    1
     6    15    17   ar
     7    17     1    1
     8     1     2   ar
     9     2     3   ar
    10     3    24    1
    11    24    26    1
    12    26    27    1
    13    27    28   ar
    14    28    29   ar
    15    29    30   ar
    16    30    31   ar
    17    31    32   ar
    18     3     4   ar
    19     4     5   ar
    20     5    18    1
    21    18    19   ar
    22    19    20   ar
    23    20    21   ar
    24    21    22   ar
    25    22    23   ar
    26     5     6   ar
    27     6     7   ar
    28     7     8   ar
    29     8     9   ar
    30     9    10   ar
    31    17    12   ar
    32    10     1   ar
    33    32    27   ar
    34     9     4   ar
    35    23    18   ar
    36    24    25    1
@<TRIPOS>MOLECULE
*****
 32 36 0 0 0
SMALL
GASTEIGER

@<TRIPOS>ATOM
      1 C         142.0664  141.4004  168.1328 C.ar    1  UNL1        0.1675
      2 N         141.5619  140.3555  167.1821 N.ar    1  UNL1       -0.2120
      3 C         142.0320  140.3480  165.7577 C.ar    1  UNL1        0.1318
      4 C         143.0066  141.3852  165.2840 C.ar    1  UNL1        0.0491
      5 C         143.4767  141.3776  163.8596 C.ar    1  UNL1        0.0041
      6 C         144.4513  142.4148  163.3859 C.ar    1  UNL1        0.0002
      7 C         144.9558  143.4595  164.3367 C.ar    1  UNL1        0.0015
      8 C         144.4857  143.4671  165.7611 C.ar    1  UNL1        0.0192
      9 C         143.5111  142.4300  166.2348 C.ar    1  UNL1        0.0856
     10 N         143.0410  142.4375  167.6592 N.ar    1  UNL1       -0.2263
     11 C         140.4178  143.8068  169.5960 C.3     1  UNL1        0.0558
     12 C         140.8386  142.5140  170.2298 C.ar    1  UNL1        0.1036
     13 N         140.5754  142.1005  171.6474 N.ar    1  UNL1       -0.0816
     14 O         141.1705  140.7387  171.8511 O.2     1  UNL1       -0.3580
     15 C         141.8015  140.3106  170.5593 C.ar    1  UNL1        0.1573
     16 C         142.5127  139.0133  170.3128 C.3     1  UNL1        0.0755
     17 C         141.5963  141.4079  169.5573 C.ar    1  UNL1        0.0854
     18 C         142.9721  140.3328  162.9088 C.ar    1  UNL1        0.0001
     19 C         141.8641  140.6613  161.9526 C.ar    1  UNL1        0.0000
     20 C         141.3595  139.6164  161.0019 C.ar    1  UNL1        0.0000
     21 C         141.9631  138.2432  161.0074 C.ar    1  UNL1        0.0000
     22 C         143.0712  137.9148  161.9637 C.ar    1  UNL1        0.0000
     23 C         143.5757  138.9596  162.9143 C.ar    1  UNL1        0.0000
     24 N         141.5275  139.3032  164.8069 N.pl3   1  UNL1       -0.3131
     25 H         142.1317  138.9201  164.1307 H       1  UNL1        0.1485
     26 C         140.1022  138.8423  164.8865 C.3     1  UNL1        0.1348
     27 C         139.1848  139.0362  163.7157 C.ar    1  UNL1        0.0788
     28 C         138.7928  137.8626  162.8677 C.ar    1  UNL1        0.0165
     29 C         137.8753  138.0565  161.6969 C.ar    1  UNL1        0.0029
     30 C         137.3500  139.4239  161.3741 C.ar    1  UNL1        0.0207
     31 C         137.7420  140.5975  162.2221 C.ar    1  UNL1        0.0985
     32 N         138.6594  140.4036  163.3929 N.ar    1  UNL1       -0.2464
@<TRIPOS>BOND
     1    11    12    1
     2    12    13   ar
     3    13    14   ar
     4    14    15   ar
     5    15    16    1
     6    15    17   ar
     7    17     1    1
     8     1     2   ar
     9     2     3   ar
    10     3    24    1
    11    24    26    1
    12    26    27    1
    13    27    28   ar
    14    28    29   ar
    15    29    30   ar
    16    30    31   ar
    17    31    32   ar
    18     3     4   ar
    19     4     5   ar
    20     5    18    1
    21    18    19   ar
    22    19    20   ar
    23    20    21   ar
    24    21    22   ar
    25    22    23   ar
    26     5     6   ar
    27     6     7   ar
    28     7     8   ar
    29     8     9   ar
    30     9    10   ar
    31    17    12   ar
    32    10     1   ar
    33    32    27   ar
    34     9     4   ar
    35    23    18   ar
    36    24    25    1
@<TRIPOS>MOLECULE
*****
 32 36 0 0 0
SMALL
GASTEIGER

@<TRIPOS>ATOM
      1 C         141.5441  142.1312  167.9247 C.ar    1  UNL1        0.1675
      2 N         140.4002  142.1633  166.9548 N.ar    1  UNL1       -0.2120
      3 C         140.6610  142.3858  165.4946 C.ar    1  UNL1        0.1318
      4 C         142.0658  142.5762  165.0041 C.ar    1  UNL1        0.0491
      5 C         142.3266  142.7987  163.5438 C.ar    1  UNL1        0.0041
      6 C         143.7313  142.9890  163.0533 C.ar    1  UNL1        0.0002
      7 C         144.8751  142.9569  164.0231 C.ar    1  UNL1        0.0015
      8 C         144.6143  142.7344  165.4834 C.ar    1  UNL1        0.0192
      9 C         143.2096  142.5440  165.9739 C.ar    1  UNL1        0.0856
     10 N         142.9487  142.3215  167.4342 N.ar    1  UNL1       -0.2263
     11 C         140.2235  144.2875  169.9877 C.3     1  UNL1        0.0558
     12 C         140.6763  142.8998  170.3332 C.ar    1  UNL1        0.1036
     13 N         140.6015  142.2596  171.6877 N.ar    1  UNL1       -0.0816
     14 O         141.1622  140.8729  171.5766 O.2     1  UNL1       -0.3580
     15 C         141.5836  140.6559  170.1534 C.ar    1  UNL1        0.1573
     16 C         142.1975  139.4058  169.5965 C.3     1  UNL1        0.0755
     17 C         141.2832  141.9087  169.3850 C.ar    1  UNL1        0.0854
     18 C         141.1827  142.8308  162.5740 C.ar    1  UNL1        0.0001
     19 C         140.4807  144.1244  162.2849 C.ar    1  UNL1        0.0000
     20 C         139.3367  144.1566  161.3150 C.ar    1  UNL1        0.0000
     21 C         138.8949  142.8951  160.6344 C.ar    1  UNL1        0.0000
     22 C         139.5970  141.6014  160.9235 C.ar    1  UNL1        0.0000
     23 C         140.7409  141.5693  161.8933 C.ar    1  UNL1        0.0000
     24 N         139.5172  142.4180  164.5247 N.pl3   1  UNL1       -0.3131
     25 H         139.5726  142.9775  163.7166 H       1  UNL1        0.1485
     26 C         138.2889  141.5975  164.7862 C.3     1  UNL1        0.1348
     27 C         138.3996  140.1097  164.9406 C.ar    1  UNL1        0.0788
     28 C         138.0314  139.4613  166.2421 C.ar    1  UNL1        0.0165
     29 C         138.1422  137.9733  166.3966 C.ar    1  UNL1        0.0029
     30 C         138.6212  137.1338  165.2495 C.ar    1  UNL1        0.0207
     31 C         138.9894  137.7823  163.9480 C.ar    1  UNL1        0.0985
     32 N         138.8786  139.2701  163.7935 N.ar    1  UNL1       -0.2464
@<TRIPOS>BOND
     1    11    12    1
     2    12    13   ar
     3    13    14   ar
     4    14    15   ar
     5    15    16    1
     6    15    17   ar
     7    17     1    1
     8     1     2   ar
     9     2     3   ar
    10     3    24    1
    11    24    26    1
    12    26    27    1
    13    27    28   ar
    14    28    29   ar
    15    29    30   ar
    16    30    31   ar
    17    31    32   ar
    18     3     4   ar
    19     4     5   ar
    20     5    18    1
    21    18    19   ar
    22    19    20   ar
    23    20    21   ar
    24    21    22   ar
    25    22    23   ar
    26     5     6   ar
    27     6     7   ar
    28     7     8   ar
    29     8     9   ar
    30     9    10   ar
    31    17    12   ar
    32    10     1   ar
    33    32    27   ar
    34     9     4   ar
    35    23    18   ar
    36    24    25    1
@<TRIPOS>MOLECULE
*****
 32 36 0 0 0
SMALL
GASTEIGER

@<TRIPOS>ATOM
      1 C         141.6085  140.4667  167.8464 C.ar    1  UNL1        0.1675
      2 N         140.3196  140.3650  167.0859 N.ar    1  UNL1       -0.2120
      3 C         140.3324  139.9779  165.6367 C.ar    1  UNL1        0.1318
      4 C         141.6342  139.6925  164.9481 C.ar    1  UNL1        0.0491
      5 C         141.6470  139.3054  163.4990 C.ar    1  UNL1        0.0041
      6 C         142.9486  139.0201  162.8104 C.ar    1  UNL1        0.0002
      7 C         144.2375  139.1218  163.5710 C.ar    1  UNL1        0.0015
      8 C         144.2247  139.5089  165.0201 C.ar    1  UNL1        0.0192
      9 C         142.9230  139.7942  165.7087 C.ar    1  UNL1        0.0856
     10 N         142.9102  140.1813  167.1578 N.ar    1  UNL1       -0.2263
     11 C         140.4944  143.2790  169.0709 C.3     1  UNL1        0.0558
     12 C         141.0836  142.1464  169.8584 C.ar    1  UNL1        0.1036
     13 N         141.2641  142.1077  171.3470 N.ar    1  UNL1       -0.0816
     14 O         141.8879  140.7912  171.7042 O.2     1  UNL1       -0.3580
     15 C         142.0928  140.0161  170.4364 C.ar    1  UNL1        0.1573
     16 C         142.6900  138.6444  170.3283 C.3     1  UNL1        0.0755
     17 C         141.5957  140.8538  169.2956 C.ar    1  UNL1        0.0854
     18 C         140.3580  139.2037  162.7385 C.ar    1  UNL1        0.0001
     19 C         139.5447  137.9452  162.8059 C.ar    1  UNL1        0.0000
     20 C         138.2558  137.8435  162.0454 C.ar    1  UNL1        0.0000
     21 C         137.7802  139.0003  161.2174 C.ar    1  UNL1        0.0000
     22 C         138.5936  140.2589  161.1499 C.ar    1  UNL1        0.0000
     23 C         139.8825  140.3605  161.9105 C.ar    1  UNL1        0.0000
     24 N         139.0436  139.8761  164.8762 N.pl3   1  UNL1       -0.3131
     25 H         138.8709  139.0949  164.3025 H       1  UNL1        0.1485
     26 C         138.0178  140.9648  164.9896 C.3     1  UNL1        0.1348
     27 C         138.3279  142.3430  164.4855 C.ar    1  UNL1        0.0788
     28 C         139.3618  143.1801  165.1786 C.ar    1  UNL1        0.0165
     29 C         139.6720  144.5584  164.6745 C.ar    1  UNL1        0.0029
     30 C         138.9483  145.0996  163.4773 C.ar    1  UNL1        0.0207
     31 C         137.9144  144.2624  162.7841 C.ar    1  UNL1        0.0985
     32 N         137.6043  142.8842  163.2883 N.ar    1  UNL1       -0.2464
@<TRIPOS>BOND
     1    11    12    1
     2    12    13   ar
     3    13    14   ar
     4    14    15   ar
     5    15    16    1
     6    15    17   ar
     7    17     1    1
     8     1     2   ar
     9     2     3   ar
    10     3    24    1
    11    24    26    1
    12    26    27    1
    13    27    28   ar
    14    28    29   ar
    15    29    30   ar
    16    30    31   ar
    17    31    32   ar
    18     3     4   ar
    19     4     5   ar
    20     5    18    1
    21    18    19   ar
    22    19    20   ar
    23    20    21   ar
    24    21    22   ar
    25    22    23   ar
    26     5     6   ar
    27     6     7   ar
    28     7     8   ar
    29     8     9   ar
    30     9    10   ar
    31    17    12   ar
    32    10     1   ar
    33    32    27   ar
    34     9     4   ar
    35    23    18   ar
    36    24    25    1
@<TRIPOS>MOLECULE
*****
 32 36 0 0 0
SMALL
GASTEIGER

@<TRIPOS>ATOM
      1 C         140.8829  138.8922  161.0716 C.ar    1  UNL1        0.1675
      2 N         140.7926  140.3705  161.3102 N.ar    1  UNL1       -0.2120
      3 C         140.1307  140.8908  162.5516 C.ar    1  UNL1        0.1318
      4 C         139.5591  139.9329  163.5545 C.ar    1  UNL1        0.0491
      5 C         138.8972  140.4532  164.7960 C.ar    1  UNL1        0.0041
      6 C         138.3256  139.4954  165.7989 C.ar    1  UNL1        0.0002
      7 C         138.4159  138.0173  165.5603 C.ar    1  UNL1        0.0015
      8 C         139.0778  137.4969  164.3189 C.ar    1  UNL1        0.0192
      9 C         139.6494  138.4547  163.3160 C.ar    1  UNL1        0.0856
     10 N         140.3113  137.9344  162.0745 N.ar    1  UNL1       -0.2263
     11 C         139.5886  138.8632  158.0760 C.3     1  UNL1        0.0558
     12 C         140.9499  138.3586  158.4533 C.ar    1  UNL1        0.1036
     13 N         141.9552  137.7520  157.5198 N.ar    1  UNL1       -0.0816
     14 O         143.1714  137.3904  158.3198 O.2     1  UNL1       -0.3580
     15 C         142.9178  137.7735  159.7477 C.ar    1  UNL1        0.1573
     16 C         143.8700  137.5905  160.8921 C.3     1  UNL1        0.0755
     17 C         141.5447  138.3719  159.8302 C.ar    1  UNL1        0.0854
     18 C         138.8070  141.9314  165.0345 C.ar    1  UNL1        0.0001
     19 C         139.8259  142.6155  165.8968 C.ar    1  UNL1        0.0000
     20 C         139.7357  144.0938  166.1353 C.ar    1  UNL1        0.0000
     21 C         138.6264  144.8877  165.5115 C.ar    1  UNL1        0.0000
     22 C         137.6074  144.2035  164.6492 C.ar    1  UNL1        0.0000
     23 C         137.6977  142.7254  164.4107 C.ar    1  UNL1        0.0000
     24 N         140.0404  142.3689  162.7902 N.pl3   1  UNL1       -0.3131
     25 H         139.2172  142.7577  163.1647 H       1  UNL1        0.1485
     26 C         141.2046  143.2547  162.4581 C.3     1  UNL1        0.1348
     27 C         142.5622  142.9509  163.0189 C.ar    1  UNL1        0.0788
     28 C         142.9270  143.4204  164.3959 C.ar    1  UNL1        0.0165
     29 C         144.2847  143.1166  164.9568 C.ar    1  UNL1        0.0029
     30 C         145.2775  142.3432  164.1405 C.ar    1  UNL1        0.0207
     31 C         144.9126  141.8737  162.7634 C.ar    1  UNL1        0.0985
     32 N         143.5549  142.1775  162.2026 N.ar    1  UNL1       -0.2464
@<TRIPOS>BOND
     1    11    12    1
     2    12    13   ar
     3    13    14   ar
     4    14    15   ar
     5    15    16    1
     6    15    17   ar
     7    17     1    1
     8     1     2   ar
     9     2     3   ar
    10     3    24    1
    11    24    26    1
    12    26    27    1
    13    27    28   ar
    14    28    29   ar
    15    29    30   ar
    16    30    31   ar
    17    31    32   ar
    18     3     4   ar
    19     4     5   ar
    20     5    18    1
    21    18    19   ar
    22    19    20   ar
    23    20    21   ar
    24    21    22   ar
    25    22    23   ar
    26     5     6   ar
    27     6     7   ar
    28     7     8   ar
    29     8     9   ar
    30     9    10   ar
    31    17    12   ar
    32    10     1   ar
    33    32    27   ar
    34     9     4   ar
    35    23    18   ar
    36    24    25    1
@<TRIPOS>MOLECULE
*****
 32 36 0 0 0
SMALL
GASTEIGER

@<TRIPOS>ATOM
      1 C         140.3554  141.5746  167.7397 C.ar    1  UNL1        0.1675
      2 N         140.2454  140.3693  166.8534 N.ar    1  UNL1       -0.2120
      3 C         139.8508  140.5295  165.4151 C.ar    1  UNL1        0.1318
      4 C         139.5661  141.8949  164.8631 C.ar    1  UNL1        0.0491
      5 C         139.1715  142.0551  163.4249 C.ar    1  UNL1        0.0041
      6 C         138.8869  143.4205  162.8728 C.ar    1  UNL1        0.0002
      7 C         138.9969  144.6256  163.7591 C.ar    1  UNL1        0.0015
      8 C         139.3915  144.4654  165.1973 C.ar    1  UNL1        0.0192
      9 C         139.6761  143.1001  165.7494 C.ar    1  UNL1        0.0856
     10 N         140.0707  142.9399  167.1876 N.ar    1  UNL1       -0.2263
     11 C         138.4769  140.3716  170.1216 C.3     1  UNL1        0.0558
     12 C         139.8866  140.8614  170.2728 C.ar    1  UNL1        0.1036
     13 N         140.6803  140.8843  171.5454 N.ar    1  UNL1       -0.0816
     14 O         142.0343  141.4514  171.2370 O.2     1  UNL1       -0.3580
     15 C         142.0774  141.7790  169.7739 C.ar    1  UNL1        0.1573
     16 C         143.2432  142.3678  169.0362 C.3     1  UNL1        0.0755
     17 C         140.7500  141.4144  169.1779 C.ar    1  UNL1        0.0854
     18 C         139.0615  140.8499  162.5386 C.ar    1  UNL1        0.0001
     19 C         140.2244  140.4375  161.6857 C.ar    1  UNL1        0.0000
     20 C         140.1145  139.2322  160.7995 C.ar    1  UNL1        0.0000
     21 C         138.8415  138.4395  160.7662 C.ar    1  UNL1        0.0000
     22 C         137.6785  138.8520  161.6191 C.ar    1  UNL1        0.0000
     23 C         137.7885  140.0571  162.5053 C.ar    1  UNL1        0.0000
     24 N         139.7408  139.3244  164.5289 N.pl3   1  UNL1       -0.3131
     25 H         139.0021  139.2550  163.8817 H       1  UNL1        0.1485
     26 C         140.7562  138.2248  164.6287 C.3     1  UNL1        0.1348
     27 C         142.2200  138.5495  164.5861 C.ar    1  UNL1        0.0788
     28 C         143.0601  138.3881  165.8182 C.ar    1  UNL1        0.0165
     29 C         144.5239  138.7129  165.7758 C.ar    1  UNL1        0.0029
     30 C         145.1476  139.1990  164.5011 C.ar    1  UNL1        0.0207
     31 C         144.3074  139.3605  163.2690 C.ar    1  UNL1        0.0985
     32 N         142.8436  139.0357  163.3115 N.ar    1  UNL1       -0.2464
@<TRIPOS>BOND
     1    11    12    1
     2    12    13   ar
     3    13    14   ar
     4    14    15   ar
     5    15    16    1
     6    15    17   ar
     7    17     1    1
     8     1     2   ar
     9     2     3   ar
    10     3    24    1
    11    24    26    1
    12    26    27    1
    13    27    28   ar
    14    28    29   ar
    15    29    30   ar
    16    30    31   ar
    17    31    32   ar
    18     3     4   ar
    19     4     5   ar
    20     5    18    1
    21    18    19   ar
    22    19    20   ar
    23    20    21   ar
    24    21    22   ar
    25    22    23   ar
    26     5     6   ar
    27     6     7   ar
    28     7     8   ar
    29     8     9   ar
    30     9    10   ar
    31    17    12   ar
    32    10     1   ar
    33    32    27   ar
    34     9     4   ar
    35    23    18   ar
    36    24    25    1
@<TRIPOS>MOLECULE
*****
 32 36 0 0 0
SMALL
GASTEIGER

@<TRIPOS>ATOM
      1 C         140.7958  138.8652  160.9030 C.ar    1  UNL1        0.1675
      2 N         140.6903  140.3413  161.1484 N.ar    1  UNL1       -0.2120
      3 C         140.0542  140.8485  162.4087 C.ar    1  UNL1        0.1318
      4 C         139.5236  139.8796  163.4235 C.ar    1  UNL1        0.0491
      5 C         138.8875  140.3867  164.6837 C.ar    1  UNL1        0.0041
      6 C         138.3569  139.4179  165.6985 C.ar    1  UNL1        0.0002
      7 C         138.4624  137.9420  165.4530 C.ar    1  UNL1        0.0015
      8 C         139.0985  137.4348  164.1928 C.ar    1  UNL1        0.0192
      9 C         139.6291  138.4036  163.1780 C.ar    1  UNL1        0.0856
     10 N         140.2652  137.8964  161.9178 N.ar    1  UNL1       -0.2263
     11 C         143.7494  137.4988  160.6607 C.3     1  UNL1        0.0558
     12 C         142.7895  137.7299  159.5314 C.ar    1  UNL1        0.1036
     13 N         143.0188  137.3736  158.0925 N.ar    1  UNL1       -0.0816
     14 O         141.8028  137.7814  157.3146 O.2     1  UNL1       -0.3580
     15 C         140.8220  138.3898  158.2727 C.ar    1  UNL1        0.1573
     16 C         139.4691  138.9344  157.9223 C.3     1  UNL1        0.0755
     17 C         141.4319  138.3580  159.6428 C.ar    1  UNL1        0.0854
     18 C         138.7820  141.8628  164.9291 C.ar    1  UNL1        0.0001
     19 C         137.6427  142.6413  164.3410 C.ar    1  UNL1        0.0000
     20 C         137.5372  144.1174  164.5864 C.ar    1  UNL1        0.0000
     21 C         138.5710  144.8149  165.4199 C.ar    1  UNL1        0.0000
     22 C         139.7104  144.0363  166.0079 C.ar    1  UNL1        0.0000
     23 C         139.8158  142.5603  165.7625 C.ar    1  UNL1        0.0000
     24 N         139.9487  142.3244  162.6541 N.pl3   1  UNL1       -0.3131
     25 H         139.1410  142.6967  163.0763 H       1  UNL1        0.1485
     26 C         141.0738  143.2332  162.2562 C.3     1  UNL1        0.1348
     27 C         142.2146  143.4722  163.2004 C.ar    1  UNL1        0.0788
     28 C         142.8825  142.3127  163.8782 C.ar    1  UNL1        0.0165
     29 C         144.0234  142.5516  164.8225 C.ar    1  UNL1        0.0029
     30 C         144.4962  143.9500  165.0888 C.ar    1  UNL1        0.0207
     31 C         143.8282  145.1095  164.4109 C.ar    1  UNL1        0.0985
     32 N         142.6874  144.8706  163.4668 N.ar    1  UNL1       -0.2464
@<TRIPOS>BOND
     1    11    12    1
     2    12    13   ar
     3    13    14   ar
     4    14    15   ar
     5    15    16    1
     6    15    17   ar
     7    17     1    1
     8     1     2   ar
     9     2     3   ar
    10     3    24    1
    11    24    26    1
    12    26    27    1
    13    27    28   ar
    14    28    29   ar
    15    29    30   ar
    16    30    31   ar
    17    31    32   ar
    18     3     4   ar
    19     4     5   ar
    20     5    18    1
    21    18    19   ar
    22    19    20   ar
    23    20    21   ar
    24    21    22   ar
    25    22    23   ar
    26     5     6   ar
    27     6     7   ar
    28     7     8   ar
    29     8     9   ar
    30     9    10   ar
    31    17    12   ar
    32    10     1   ar
    33    32    27   ar
    34     9     4   ar
    35    23    18   ar
    36    24    25    1
@<TRIPOS>MOLECULE
*****
 32 36 0 0 0
SMALL
GASTEIGER

@<TRIPOS>ATOM
      1 C         141.0881  142.3437  168.1150 C.ar    1  UNL1        0.1675
      2 N         142.2130  141.9326  167.2118 N.ar    1  UNL1       -0.2120
      3 C         142.2195  142.3674  165.7763 C.ar    1  UNL1        0.1318
      4 C         141.1010  143.2134  165.2439 C.ar    1  UNL1        0.0491
      5 C         141.1074  143.6483  163.8083 C.ar    1  UNL1        0.0041
      6 C         139.9890  144.4942  163.2759 C.ar    1  UNL1        0.0002
      7 C         138.8642  144.9053  164.1790 C.ar    1  UNL1        0.0015
      8 C         138.8577  144.4704  165.6146 C.ar    1  UNL1        0.0192
      9 C         139.9761  143.6245  166.1470 C.ar    1  UNL1        0.0856
     10 N         139.9697  143.1896  167.5826 N.ar    1  UNL1       -0.2263
     11 C         143.1851  143.3096  170.4213 C.3     1  UNL1        0.0558
     12 C         142.0455  142.3528  170.6106 C.ar    1  UNL1        0.1036
     13 N         141.6698  141.6720  171.8934 N.ar    1  UNL1       -0.0816
     14 O         140.4737  140.8072  171.6260 O.2     1  UNL1       -0.3580
     15 C         140.1101  140.9535  170.1781 C.ar    1  UNL1        0.1573
     16 C         138.9746  140.2655  169.4803 C.3     1  UNL1        0.0755
     17 C         141.0817  141.9088  169.5506 C.ar    1  UNL1        0.0854
     18 C         142.2323  143.2372  162.9051 C.ar    1  UNL1        0.0001
     19 C         142.0338  142.1250  161.9184 C.ar    1  UNL1        0.0000
     20 C         143.1587  141.7139  161.0153 C.ar    1  UNL1        0.0000
     21 C         144.4821  142.4150  161.0989 C.ar    1  UNL1        0.0000
     22 C         144.6807  143.5272  162.0857 C.ar    1  UNL1        0.0000
     23 C         143.5558  143.9382  162.9888 C.ar    1  UNL1        0.0000
     24 N         143.3443  141.9564  164.8731 N.pl3   1  UNL1       -0.3131
     25 H         143.7635  142.6179  164.2766 H       1  UNL1        0.1485
     26 C         143.8304  140.5373  164.8788 C.3     1  UNL1        0.1348
     27 C         143.2726  139.5494  163.8976 C.ar    1  UNL1        0.0788
     28 C         141.8362  139.1277  163.9924 C.ar    1  UNL1        0.0165
     29 C         141.2783  138.1398  163.0111 C.ar    1  UNL1        0.0029
     30 C         142.1568  137.5737  161.9351 C.ar    1  UNL1        0.0207
     31 C         143.5932  137.9955  161.8403 C.ar    1  UNL1        0.0985
     32 N         144.1510  138.9833  162.8216 N.ar    1  UNL1       -0.2464
@<TRIPOS>BOND
     1    11    12    1
     2    12    13   ar
     3    13    14   ar
     4    14    15   ar
     5    15    16    1
     6    15    17   ar
     7    17     1    1
     8     1     2   ar
     9     2     3   ar
    10     3    24    1
    11    24    26    1
    12    26    27    1
    13    27    28   ar
    14    28    29   ar
    15    29    30   ar
    16    30    31   ar
    17    31    32   ar
    18     3     4   ar
    19     4     5   ar
    20     5    18    1
    21    18    19   ar
    22    19    20   ar
    23    20    21   ar
    24    21    22   ar
    25    22    23   ar
    26     5     6   ar
    27     6     7   ar
    28     7     8   ar
    29     8     9   ar
    30     9    10   ar
    31    17    12   ar
    32    10     1   ar
    33    32    27   ar
    34     9     4   ar
    35    23    18   ar
    36    24    25    1
@<TRIPOS>MOLECULE
*****
 32 36 0 0 0
SMALL
GASTEIGER

@<TRIPOS>ATOM
      1 C         140.1999  141.4974  167.0055 C.ar    1  UNL1        0.1675
      2 N         139.4831  141.9730  165.7766 N.ar    1  UNL1       -0.2120
      3 C         140.2279  142.7373  164.7225 C.ar    1  UNL1        0.1318
      4 C         141.6895  143.0260  164.8973 C.ar    1  UNL1        0.0491
      5 C         142.4342  143.7903  163.8432 C.ar    1  UNL1        0.0041
      6 C         143.8958  144.0790  164.0179 C.ar    1  UNL1        0.0002
      7 C         144.6125  143.6034  165.2467 C.ar    1  UNL1        0.0015
      8 C         143.8677  142.8391  166.3008 C.ar    1  UNL1        0.0192
      9 C         142.4062  142.5504  166.1261 C.ar    1  UNL1        0.0856
     10 N         141.6614  141.7861  167.1802 N.ar    1  UNL1       -0.2263
     11 C         140.2014  142.1431  170.2044 C.3     1  UNL1        0.0558
     12 C         139.4558  141.0299  169.5299 C.ar    1  UNL1        0.1036
     13 N         138.5800  140.0180  170.2075 N.ar    1  UNL1       -0.0816
     14 O         138.0380  139.0958  169.1559 O.2     1  UNL1       -0.3580
     15 C         138.5788  139.5377  167.8284 C.ar    1  UNL1        0.1573
     16 C         138.2935  138.8969  166.5026 C.3     1  UNL1        0.0755
     17 C         139.4551  140.7331  168.0596 C.ar    1  UNL1        0.0854
     18 C         141.7174  144.2659  162.6143 C.ar    1  UNL1        0.0001
     19 C         140.8711  145.5030  162.6713 C.ar    1  UNL1        0.0000
     20 C         140.1542  145.9786  161.4424 C.ar    1  UNL1        0.0000
     21 C         140.2838  145.2171  160.1566 C.ar    1  UNL1        0.0000
     22 C         141.1303  143.9799  160.0997 C.ar    1  UNL1        0.0000
     23 C         141.8470  143.5044  161.3285 C.ar    1  UNL1        0.0000
     24 N         139.5111  143.2129  163.4937 N.pl3   1  UNL1       -0.3131
     25 H         139.7118  144.1012  163.1196 H       1  UNL1        0.1485
     26 C         138.4886  142.3351  162.8348 C.3     1  UNL1        0.1348
     27 C         138.8380  140.9241  162.4650 C.ar    1  UNL1        0.0788
     28 C         140.0336  140.6491  161.6019 C.ar    1  UNL1        0.0165
     29 C         140.3830  139.2380  161.2320 C.ar    1  UNL1        0.0029
     30 C         139.5369  138.1019  161.7253 C.ar    1  UNL1        0.0207
     31 C         138.3413  138.3769  162.5885 C.ar    1  UNL1        0.0985
     32 N         137.9919  139.7880  162.9583 N.ar    1  UNL1       -0.2464
@<TRIPOS>BOND
     1    11    12    1
     2    12    13   ar
     3    13    14   ar
     4    14    15   ar
     5    15    16    1
     6    15    17   ar
     7    17     1    1
     8     1     2   ar
     9     2     3   ar
    10     3    24    1
    11    24    26    1
    12    26    27    1
    13    27    28   ar
    14    28    29   ar
    15    29    30   ar
    16    30    31   ar
    17    31    32   ar
    18     3     4   ar
    19     4     5   ar
    20     5    18    1
    21    18    19   ar
    22    19    20   ar
    23    20    21   ar
    24    21    22   ar
    25    22    23   ar
    26     5     6   ar
    27     6     7   ar
    28     7     8   ar
    29     8     9   ar
    30     9    10   ar
    31    17    12   ar
    32    10     1   ar
    33    32    27   ar
    34     9     4   ar
    35    23    18   ar
    36    24    25    1
