@<TRIPOS>MOLECULE
*****
 33 37 0 0 0
SMALL
GASTEIGER

@<TRIPOS>ATOM
      1 N         141.4811  144.6814  163.7098 N.3     1  UNL1       -0.2724
      2 C         142.9180  145.0825  163.5536 C.3     1  UNL1        0.0724
      3 C         143.7503  144.1634  164.3976 C.3     1  UNL1        0.0214
      4 C         144.3065  143.1146  165.3144 C.3     1  UNL1        0.0072
      5 C         142.8278  143.1942  165.0756 C.3     1  UNL1        0.0350
      6 C         141.4254  143.5143  164.6505 C.3     1  UNL1        0.0761
      7 C         142.4629  142.0438  165.9663 C.ar    1  UNL1       -0.0193
      8 C         143.1103  140.7056  165.7661 C.ar    1  UNL1        0.0254
      9 C         142.7454  139.5551  166.6568 C.ar    1  UNL1        0.1398
     10 F         143.3928  138.2169  166.4566 F       1  UNL1       -0.2042
     11 C         141.7332  139.7429  167.7478 C.ar    1  UNL1        0.0335
     12 C         141.0858  141.0812  167.9479 C.ar    1  UNL1        0.0733
     13 C         141.4506  142.2316  167.0572 C.ar    1  UNL1       -0.0002
     14 C         140.0735  141.2689  169.0388 C.3     1  UNL1        0.4186
     15 F         139.0613  141.4567  170.1297 F       1  UNL1       -0.1659
     16 F         140.0438  142.7421  168.7577 F       1  UNL1       -0.1659
     17 F         140.1032  139.7958  169.3200 F       1  UNL1       -0.1659
     18 C         140.3062  145.3329  163.0426 C.3     1  UNL1        0.0730
     19 C         140.3275  145.5837  161.5639 C.3     1  UNL1        0.0294
     20 C         140.8544  144.5326  160.6325 C.3     1  UNL1        0.0666
     21 S         139.9838  143.3772  160.2360 S.3     1  UNL1       -0.0756
     22 C         138.4887  141.1460  163.0380 C.ar    1  UNL1        0.2029
     23 N         137.3084  142.0036  162.6896 N.ar    1  UNL1       -0.1250
     24 N         137.7248  142.9438  161.5976 N.ar    1  UNL1       -0.1220
     25 C         139.1625  142.6673  161.2711 C.ar    1  UNL1        0.1933
     26 N         139.6345  141.5562  162.1613 N.ar    1  UNL1       -0.2860
     27 C         141.0110  140.9599  162.1728 C.3     1  UNL1        0.1341
     28 C         138.8057  137.9465  162.4793 C.3     1  UNL1        0.0556
     29 C         138.6636  138.5970  163.8234 C.ar    1  UNL1        0.1001
     30 N         138.6424  137.8909  165.1467 N.ar    1  UNL1       -0.2085
     31 C         138.4835  138.9253  166.2214 C.ar    1  UNL1        0.2849
     32 O         138.4066  140.2704  165.5623 O.2     1  UNL1       -0.4283
     33 C         138.5180  140.0675  164.0803 C.ar    1  UNL1        0.1964
@<TRIPOS>BOND
     1    28    29    1
     2    29    30   ar
     3    30    31   ar
     4    31    32   ar
     5    32    33   ar
     6    33    22    1
     7    22    23   ar
     8    23    24   ar
     9    24    25   ar
    10    25    21    1
    11    21    20    1
    12    20    19    1
    13    19    18    1
    14    18     1    1
    15     1     2    1
    16     2     3    1
    17     3     4    1
    18     4     5    1
    19     5     7    1
    20     7     8   ar
    21     8     9   ar
    22     9    10    1
    23     9    11   ar
    24    11    12   ar
    25    12    14    1
    26    14    15    1
    27    14    16    1
    28    14    17    1
    29    12    13   ar
    30     5     6    1
    31    25    26   ar
    32    26    27    1
    33    33    29   ar
    34    26    22   ar
    35     6     1    1
    36     5     3    1
    37    13     7   ar
@<TRIPOS>MOLECULE
*****
 33 37 0 0 0
SMALL
GASTEIGER

@<TRIPOS>ATOM
      1 N         143.3442  139.4279  164.7986 N.3     1  UNL1       -0.2724
      2 C         142.2679  138.7242  164.0264 C.3     1  UNL1        0.0724
      3 C         141.0018  138.7932  164.8278 C.3     1  UNL1        0.0214
      4 C         139.9131  139.0191  165.8346 C.3     1  UNL1        0.0072
      5 C         141.2956  139.5395  166.0953 C.3     1  UNL1        0.0350
      6 C         142.7433  139.9318  166.0772 C.3     1  UNL1        0.0761
      7 C         140.9837  140.1522  167.4284 C.ar    1  UNL1       -0.0193
      8 C         139.6717  139.8660  168.0968 C.ar    1  UNL1        0.0254
      9 C         139.3598  140.4787  169.4301 C.ar    1  UNL1        0.1398
     10 F         138.0478  140.1925  170.0985 F       1  UNL1       -0.2042
     11 C         140.3598  141.3776  170.0948 C.ar    1  UNL1        0.0335
     12 C         141.6719  141.6638  169.4263 C.ar    1  UNL1        0.0733
     13 C         141.9838  141.0511  168.0932 C.ar    1  UNL1       -0.0002
     14 C         142.6719  142.5627  170.0910 C.3     1  UNL1        0.4186
     15 F         143.6720  143.4616  170.7557 F       1  UNL1       -0.1659
     16 F         141.9596  142.3877  171.3994 F       1  UNL1       -0.1659
     17 F         143.3843  142.7377  168.7826 F       1  UNL1       -0.1659
     18 C         144.7709  139.5979  164.3678 C.3     1  UNL1        0.0730
     19 C         145.1018  140.4786  163.1996 C.3     1  UNL1        0.0294
     20 C         145.5190  141.9013  163.4274 C.3     1  UNL1        0.0666
     21 S         144.5445  143.0162  163.1879 S.3     1  UNL1       -0.0756
     22 C         140.7519  142.3570  163.6850 C.ar    1  UNL1        0.2029
     23 N         141.1127  142.9802  165.0008 N.ar    1  UNL1       -0.1250
     24 N         142.5772  143.3030  164.9748 N.ar    1  UNL1       -0.1220
     25 C         143.1217  142.8793  163.6429 C.ar    1  UNL1        0.1933
     26 N         141.9935  142.2946  162.8458 N.ar    1  UNL1       -0.2860
     27 C         142.0902  141.7442  161.4537 C.3     1  UNL1        0.1341
     28 C         137.9664  144.0306  163.9839 C.3     1  UNL1        0.0556
     29 C         138.1085  142.6491  163.4170 C.ar    1  UNL1        0.1001
     30 N         136.9951  141.7944  162.8880 N.ar    1  UNL1       -0.2085
     31 C         137.5874  140.4969  162.4237 C.ar    1  UNL1        0.2849
     32 O         139.0667  140.5497  162.6657 O.2     1  UNL1       -0.4283
     33 C         139.3888  141.8799  163.2796 C.ar    1  UNL1        0.1964
@<TRIPOS>BOND
     1    28    29    1
     2    29    30   ar
     3    30    31   ar
     4    31    32   ar
     5    32    33   ar
     6    33    22    1
     7    22    23   ar
     8    23    24   ar
     9    24    25   ar
    10    25    21    1
    11    21    20    1
    12    20    19    1
    13    19    18    1
    14    18     1    1
    15     1     2    1
    16     2     3    1
    17     3     4    1
    18     4     5    1
    19     5     7    1
    20     7     8   ar
    21     8     9   ar
    22     9    10    1
    23     9    11   ar
    24    11    12   ar
    25    12    14    1
    26    14    15    1
    27    14    16    1
    28    14    17    1
    29    12    13   ar
    30     5     6    1
    31    25    26   ar
    32    26    27    1
    33    33    29   ar
    34    26    22   ar
    35     6     1    1
    36     5     3    1
    37    13     7   ar
@<TRIPOS>MOLECULE
*****
 33 37 0 0 0
SMALL
GASTEIGER

@<TRIPOS>ATOM
      1 N         143.7080  142.0116  164.1361 N.3     1  UNL1       -0.2724
      2 C         143.8111  140.6806  163.4519 C.3     1  UNL1        0.0724
      3 C         143.4113  139.6214  164.4359 C.3     1  UNL1        0.0214
      4 C         142.9707  138.8048  165.6144 C.3     1  UNL1        0.0072
      5 C         143.0611  140.2977  165.7282 C.3     1  UNL1        0.0350
      6 C         143.2445  141.7748  165.5429 C.3     1  UNL1        0.0761
      7 C         142.6165  140.3731  167.1588 C.ar    1  UNL1       -0.0193
      8 C         142.7800  139.1842  168.0586 C.ar    1  UNL1        0.0254
      9 C         142.3354  139.2596  169.4893 C.ar    1  UNL1        0.1398
     10 F         142.4988  138.0707  170.3892 F       1  UNL1       -0.2042
     11 C         141.7273  140.5239  170.0201 C.ar    1  UNL1        0.0335
     12 C         141.5638  141.7129  169.1201 C.ar    1  UNL1        0.0733
     13 C         142.0084  141.6375  167.6896 C.ar    1  UNL1       -0.0002
     14 C         140.9557  142.9773  169.6509 C.3     1  UNL1        0.4186
     15 F         140.3477  144.2415  170.1816 F       1  UNL1       -0.1659
     16 F         141.3594  142.5874  171.0420 F       1  UNL1       -0.1659
     17 F         140.5521  143.3671  168.2598 F       1  UNL1       -0.1659
     18 C         144.0146  143.3450  163.5214 C.3     1  UNL1        0.0730
     19 C         143.2493  144.5620  163.9493 C.3     1  UNL1        0.0294
     20 C         142.3354  145.2523  162.9807 C.3     1  UNL1        0.0666
     21 S         140.8742  144.9136  162.9565 S.3     1  UNL1       -0.0756
     22 C         139.7507  141.4535  164.3092 C.ar    1  UNL1        0.2029
     23 N         139.4225  142.3404  165.4736 N.ar    1  UNL1       -0.1250
     24 N         139.8034  143.7444  165.1086 N.ar    1  UNL1       -0.1220
     25 C         140.3670  143.7254  163.7186 C.ar    1  UNL1        0.1933
     26 N         140.3344  142.3095  163.2246 N.ar    1  UNL1       -0.2860
     27 C         140.8033  141.8332  161.8817 C.3     1  UNL1        0.1341
     28 C         139.0715  139.4970  166.8312 C.3     1  UNL1        0.0556
     29 C         139.2211  139.0716  165.4006 C.ar    1  UNL1        0.1001
     30 N         139.0847  137.6722  164.8781 N.ar    1  UNL1       -0.2085
     31 C         139.3126  137.7066  163.3959 C.ar    1  UNL1        0.2849
     32 O         139.5898  139.1272  163.0024 O.2     1  UNL1       -0.4283
     33 C         139.5332  139.9708  164.2414 C.ar    1  UNL1        0.1964
@<TRIPOS>BOND
     1    28    29    1
     2    29    30   ar
     3    30    31   ar
     4    31    32   ar
     5    32    33   ar
     6    33    22    1
     7    22    23   ar
     8    23    24   ar
     9    24    25   ar
    10    25    21    1
    11    21    20    1
    12    20    19    1
    13    19    18    1
    14    18     1    1
    15     1     2    1
    16     2     3    1
    17     3     4    1
    18     4     5    1
    19     5     7    1
    20     7     8   ar
    21     8     9   ar
    22     9    10    1
    23     9    11   ar
    24    11    12   ar
    25    12    14    1
    26    14    15    1
    27    14    16    1
    28    14    17    1
    29    12    13   ar
    30     5     6    1
    31    25    26   ar
    32    26    27    1
    33    33    29   ar
    34    26    22   ar
    35     6     1    1
    36     5     3    1
    37    13     7   ar
@<TRIPOS>MOLECULE
*****
 33 37 0 0 0
SMALL
GASTEIGER

@<TRIPOS>ATOM
      1 N         139.3031  139.6607  166.4298 N.3     1  UNL1       -0.2724
      2 C         139.2656  139.8980  167.9104 C.3     1  UNL1        0.0724
      3 C         140.1350  141.0825  168.2122 C.3     1  UNL1        0.0214
      4 C         141.0523  142.2693  168.2040 C.3     1  UNL1        0.0072
      5 C         140.7098  141.5773  166.9180 C.3     1  UNL1        0.0350
      6 C         140.1956  140.6986  165.8165 C.3     1  UNL1        0.0761
      7 C         141.5307  142.4705  166.0358 C.ar    1  UNL1       -0.0193
      8 C         143.0246  142.4892  166.1696 C.ar    1  UNL1        0.0254
      9 C         143.8456  143.3824  165.2874 C.ar    1  UNL1        0.1398
     10 F         145.3395  143.4010  165.4212 F       1  UNL1       -0.2042
     11 C         143.1726  144.2569  164.2714 C.ar    1  UNL1        0.0335
     12 C         141.6786  144.2383  164.1376 C.ar    1  UNL1        0.0733
     13 C         140.8577  143.3451  165.0198 C.ar    1  UNL1       -0.0002
     14 C         141.0056  145.1128  163.1216 C.3     1  UNL1        0.4186
     15 F         140.3327  145.9873  162.1056 F       1  UNL1       -0.1659
     16 F         142.1935  144.9749  162.2160 F       1  UNL1       -0.1659
     17 F         139.8178  145.2508  164.0271 F       1  UNL1       -0.1659
     18 C         138.5757  138.5759  165.6920 C.3     1  UNL1        0.0730
     19 C         139.1715  137.9848  164.4488 C.3     1  UNL1        0.0294
     20 C         138.4141  138.0388  163.1552 C.3     1  UNL1        0.0666
     21 S         139.1564  138.1217  161.8544 S.3     1  UNL1       -0.0756
     22 C         142.7832  139.5033  161.9016 C.ar    1  UNL1        0.2029
     23 N         143.0360  138.0297  161.7817 N.ar    1  UNL1       -0.1250
     24 N         141.7082  137.3328  161.7494 N.ar    1  UNL1       -0.1220
     25 C         140.6347  138.3757  161.8494 C.ar    1  UNL1        0.1933
     26 N         141.2992  139.7172  161.9435 N.ar    1  UNL1       -0.2860
     27 C         140.6019  141.0403  162.0591 C.3     1  UNL1        0.1341
     28 C         145.1082  139.7749  164.1755 C.3     1  UNL1        0.0556
     29 C         144.8993  140.6998  163.0132 C.ar    1  UNL1        0.1001
     30 N         145.7225  141.9120  162.6921 N.ar    1  UNL1       -0.2085
     31 C         145.1625  142.5363  161.4485 C.ar    1  UNL1        0.2849
     32 O         143.9934  141.7101  161.0010 O.2     1  UNL1       -0.4283
     33 C         143.8307  140.5750  161.9681 C.ar    1  UNL1        0.1964
@<TRIPOS>BOND
     1    28    29    1
     2    29    30   ar
     3    30    31   ar
     4    31    32   ar
     5    32    33   ar
     6    33    22    1
     7    22    23   ar
     8    23    24   ar
     9    24    25   ar
    10    25    21    1
    11    21    20    1
    12    20    19    1
    13    19    18    1
    14    18     1    1
    15     1     2    1
    16     2     3    1
    17     3     4    1
    18     4     5    1
    19     5     7    1
    20     7     8   ar
    21     8     9   ar
    22     9    10    1
    23     9    11   ar
    24    11    12   ar
    25    12    14    1
    26    14    15    1
    27    14    16    1
    28    14    17    1
    29    12    13   ar
    30     5     6    1
    31    25    26   ar
    32    26    27    1
    33    33    29   ar
    34    26    22   ar
    35     6     1    1
    36     5     3    1
    37    13     7   ar
@<TRIPOS>MOLECULE
*****
 33 37 0 0 0
SMALL
GASTEIGER

@<TRIPOS>ATOM
      1 N         140.2409  143.8551  163.5740 N.3     1  UNL1       -0.2724
      2 C         138.9563  144.2799  162.9264 C.3     1  UNL1        0.0724
      3 C         138.0653  143.0770  162.8310 C.3     1  UNL1        0.0214
      4 C         137.4145  141.7262  162.8729 C.3     1  UNL1        0.0072
      5 C         138.7993  141.9087  163.4196 C.3     1  UNL1        0.0350
      6 C         140.1438  142.3896  163.8788 C.3     1  UNL1        0.0761
      7 C         138.9917  140.4814  163.8388 C.ar    1  UNL1       -0.0193
      8 C         139.9296  139.5951  163.0740 C.ar    1  UNL1        0.0254
      9 C         140.1221  138.1677  163.4931 C.ar    1  UNL1        0.1398
     10 F         141.0600  137.2815  162.7283 F       1  UNL1       -0.2042
     11 C         139.3767  137.6267  164.6770 C.ar    1  UNL1        0.0335
     12 C         138.4388  138.5130  165.4418 C.ar    1  UNL1        0.0733
     13 C         138.2463  139.9403  165.0227 C.ar    1  UNL1       -0.0002
     14 C         137.6933  137.9719  166.6257 C.3     1  UNL1        0.4186
     15 F         136.9480  137.4309  167.8095 F       1  UNL1       -0.1659
     16 F         137.3510  139.3697  167.0489 F       1  UNL1       -0.1659
     17 F         138.0357  136.5742  166.2025 F       1  UNL1       -0.1659
     18 C         141.4162  144.7404  163.8655 C.3     1  UNL1        0.0730
     19 C         142.7856  144.3478  163.3959 C.3     1  UNL1        0.0294
     20 C         143.0048  143.0068  162.7606 C.3     1  UNL1        0.0666
     21 S         144.0229  142.0642  163.3309 S.3     1  UNL1       -0.0756
     22 C         142.8877  139.8749  166.3281 C.ar    1  UNL1        0.2029
     23 N         143.0089  138.8438  165.2455 N.ar    1  UNL1       -0.1250
     24 N         143.4488  139.5384  163.9910 N.ar    1  UNL1       -0.1220
     25 C         143.5996  140.9988  164.2983 C.ar    1  UNL1        0.1933
     26 N         143.2528  141.2067  165.7427 N.ar    1  UNL1       -0.2860
     27 C         143.2684  142.5167  166.4734 C.3     1  UNL1        0.1341
     28 C         140.1897  141.0068  167.7736 C.3     1  UNL1        0.0556
     29 C         141.2340  140.1393  168.4115 C.ar    1  UNL1        0.1001
     30 N         141.2214  139.6397  169.8258 N.ar    1  UNL1       -0.2085
     31 C         142.4538  138.8107  170.0355 C.ar    1  UNL1        0.2849
     32 O         143.2279  138.7979  168.7508 O.2     1  UNL1       -0.4283
     33 C         142.4741  139.6190  167.7471 C.ar    1  UNL1        0.1964
@<TRIPOS>BOND
     1    28    29    1
     2    29    30   ar
     3    30    31   ar
     4    31    32   ar
     5    32    33   ar
     6    33    22    1
     7    22    23   ar
     8    23    24   ar
     9    24    25   ar
    10    25    21    1
    11    21    20    1
    12    20    19    1
    13    19    18    1
    14    18     1    1
    15     1     2    1
    16     2     3    1
    17     3     4    1
    18     4     5    1
    19     5     7    1
    20     7     8   ar
    21     8     9   ar
    22     9    10    1
    23     9    11   ar
    24    11    12   ar
    25    12    14    1
    26    14    15    1
    27    14    16    1
    28    14    17    1
    29    12    13   ar
    30     5     6    1
    31    25    26   ar
    32    26    27    1
    33    33    29   ar
    34    26    22   ar
    35     6     1    1
    36     5     3    1
    37    13     7   ar
@<TRIPOS>MOLECULE
*****
 33 37 0 0 0
SMALL
GASTEIGER

@<TRIPOS>ATOM
      1 N         143.9821  142.2638  162.8422 N.3     1  UNL1       -0.2724
      2 C         144.6103  143.6240  162.9137 C.3     1  UNL1        0.0724
      3 C         143.5337  144.6150  163.2435 C.3     1  UNL1        0.0214
      4 C         142.2706  145.3540  163.5727 C.3     1  UNL1        0.0072
      5 C         142.2401  143.8673  163.3758 C.3     1  UNL1        0.0350
      6 C         142.5173  142.4141  163.1277 C.3     1  UNL1        0.0761
      7 C         140.7689  143.7068  163.6202 C.ar    1  UNL1       -0.0193
      8 C         140.0752  144.5817  164.6219 C.ar    1  UNL1        0.0254
      9 C         138.6039  144.4213  164.8663 C.ar    1  UNL1        0.1398
     10 F         137.9103  145.2961  165.8680 F       1  UNL1       -0.2042
     11 C         137.8264  143.3860  164.1090 C.ar    1  UNL1        0.0335
     12 C         138.5201  142.5111  163.1072 C.ar    1  UNL1        0.0733
     13 C         139.9913  142.6715  162.8628 C.ar    1  UNL1       -0.0002
     14 C         137.7425  141.4758  162.3499 C.3     1  UNL1        0.4186
     15 F         136.9650  140.4405  161.5926 F       1  UNL1       -0.1659
     16 F         137.4030  140.7878  163.6389 F       1  UNL1       -0.1659
     17 F         138.0820  142.1637  161.0609 F       1  UNL1       -0.1659
     18 C         144.6938  140.9788  162.5384 C.3     1  UNL1        0.0730
     19 C         143.9469  139.6788  162.5838 C.3     1  UNL1        0.0294
     20 C         143.8942  138.8882  163.8574 C.3     1  UNL1        0.0666
     21 S         142.6092  138.7866  164.6245 S.3     1  UNL1       -0.0756
     22 C         141.9797  140.2511  168.1635 C.ar    1  UNL1        0.2029
     23 N         143.0422  139.2333  168.4557 N.ar    1  UNL1       -0.1250
     24 N         143.4073  138.5609  167.1656 N.ar    1  UNL1       -0.1220
     25 C         142.5705  139.1630  166.0760 C.ar    1  UNL1        0.1933
     26 N         141.6882  140.2076  166.6928 N.ar    1  UNL1       -0.2860
     27 C         140.6896  141.0592  165.9662 C.3     1  UNL1        0.1341
     28 C         143.4784  142.5108  169.9793 C.3     1  UNL1        0.0556
     29 C         142.0127  142.1924  170.0006 C.ar    1  UNL1        0.1001
     30 N         140.9786  142.8568  170.8604 N.ar    1  UNL1       -0.2085
     31 C         139.6506  142.2288  170.5571 C.ar    1  UNL1        0.2849
     32 O         139.8640  141.1763  169.5100 O.2     1  UNL1       -0.4283
     33 C         141.3238  141.1538  169.1660 C.ar    1  UNL1        0.1964
@<TRIPOS>BOND
     1    28    29    1
     2    29    30   ar
     3    30    31   ar
     4    31    32   ar
     5    32    33   ar
     6    33    22    1
     7    22    23   ar
     8    23    24   ar
     9    24    25   ar
    10    25    21    1
    11    21    20    1
    12    20    19    1
    13    19    18    1
    14    18     1    1
    15     1     2    1
    16     2     3    1
    17     3     4    1
    18     4     5    1
    19     5     7    1
    20     7     8   ar
    21     8     9   ar
    22     9    10    1
    23     9    11   ar
    24    11    12   ar
    25    12    14    1
    26    14    15    1
    27    14    16    1
    28    14    17    1
    29    12    13   ar
    30     5     6    1
    31    25    26   ar
    32    26    27    1
    33    33    29   ar
    34    26    22   ar
    35     6     1    1
    36     5     3    1
    37    13     7   ar
@<TRIPOS>MOLECULE
*****
 33 37 0 0 0
SMALL
GASTEIGER

@<TRIPOS>ATOM
      1 N         143.0089  138.6368  163.2570 N.3     1  UNL1       -0.2724
      2 C         142.3138  137.8767  162.1665 C.3     1  UNL1        0.0724
      3 C         140.8921  137.6543  162.5900 C.3     1  UNL1        0.0214
      4 C         139.5575  137.5879  163.2713 C.3     1  UNL1        0.0072
      5 C         140.7085  138.2769  163.9423 C.3     1  UNL1        0.0350
      6 C         142.0167  138.8841  164.3545 C.3     1  UNL1        0.0761
      7 C         139.9571  138.6682  165.1801 C.ar    1  UNL1       -0.0193
      8 C         138.7111  137.9278  165.5666 C.ar    1  UNL1        0.0254
      9 C         137.9596  138.3191  166.8044 C.ar    1  UNL1        0.1398
     10 F         136.7137  137.5786  167.1910 F       1  UNL1       -0.2042
     11 C         138.4541  139.4509  167.6557 C.ar    1  UNL1        0.0335
     12 C         139.7000  140.1913  167.2691 C.ar    1  UNL1        0.0733
     13 C         140.4515  139.8000  166.0313 C.ar    1  UNL1       -0.0002
     14 C         140.1945  141.3231  168.1204 C.3     1  UNL1        0.4186
     15 F         140.6889  142.4548  168.9716 F       1  UNL1       -0.1659
     16 F         139.9515  142.2792  166.9904 F       1  UNL1       -0.1659
     17 F         140.4375  140.3670  169.2504 F       1  UNL1       -0.1659
     18 C         144.4441  139.0729  163.2511 C.3     1  UNL1        0.0730
     19 C         144.8980  140.1709  164.1666 C.3     1  UNL1        0.0294
     20 C         145.6257  141.3587  163.6102 C.3     1  UNL1        0.0666
     21 S         144.8675  142.4302  162.8842 S.3     1  UNL1       -0.0756
     22 C         141.0950  141.9335  162.1183 C.ar    1  UNL1        0.2029
     23 N         141.7159  141.4542  160.8397 N.ar    1  UNL1       -0.1250
     24 N         143.2046  141.5820  160.9710 N.ar    1  UNL1       -0.1220
     25 C         143.5038  142.1402  162.3307 C.ar    1  UNL1        0.1933
     26 N         142.2000  142.3574  163.0398 N.ar    1  UNL1       -0.2860
     27 C         142.0309  142.9029  164.4268 C.3     1  UNL1        0.1341
     28 C         139.2692  144.6285  162.3486 C.3     1  UNL1        0.0556
     29 C         138.7876  143.2193  162.5279 C.ar    1  UNL1        0.1001
     30 N         137.3822  142.8014  162.8445 N.ar    1  UNL1       -0.2085
     31 C         137.3528  141.3044  162.9344 C.ar    1  UNL1        0.2849
     32 O         138.7400  140.7971  162.6733 O.2     1  UNL1       -0.4283
     33 C         139.6267  141.9806  162.4221 C.ar    1  UNL1        0.1964
@<TRIPOS>BOND
     1    28    29    1
     2    29    30   ar
     3    30    31   ar
     4    31    32   ar
     5    32    33   ar
     6    33    22    1
     7    22    23   ar
     8    23    24   ar
     9    24    25   ar
    10    25    21    1
    11    21    20    1
    12    20    19    1
    13    19    18    1
    14    18     1    1
    15     1     2    1
    16     2     3    1
    17     3     4    1
    18     4     5    1
    19     5     7    1
    20     7     8   ar
    21     8     9   ar
    22     9    10    1
    23     9    11   ar
    24    11    12   ar
    25    12    14    1
    26    14    15    1
    27    14    16    1
    28    14    17    1
    29    12    13   ar
    30     5     6    1
    31    25    26   ar
    32    26    27    1
    33    33    29   ar
    34    26    22   ar
    35     6     1    1
    36     5     3    1
    37    13     7   ar
@<TRIPOS>MOLECULE
*****
 33 37 0 0 0
SMALL
GASTEIGER

@<TRIPOS>ATOM
      1 N         138.3482  141.4027  161.3416 N.3     1  UNL1       -0.2724
      2 C         138.0157  142.8645  161.3911 C.3     1  UNL1        0.0724
      3 C         138.0879  143.3081  162.8222 C.3     1  UNL1        0.0214
      4 C         138.2362  143.4524  164.3078 C.3     1  UNL1        0.0072
      5 C         138.4651  142.1204  163.6571 C.3     1  UNL1        0.0350
      6 C         138.6260  140.9428  162.7421 C.3     1  UNL1        0.0761
      7 C         138.7907  141.3821  164.9216 C.ar    1  UNL1       -0.0193
      8 C         139.7211  141.9920  165.9278 C.ar    1  UNL1        0.0254
      9 C         140.0467  141.2536  167.1923 C.ar    1  UNL1        0.1398
     10 F         140.9771  141.8635  168.1985 F       1  UNL1       -0.2042
     11 C         139.4420  139.9054  167.4505 C.ar    1  UNL1        0.0335
     12 C         138.5116  139.2955  166.4442 C.ar    1  UNL1        0.0733
     13 C         138.1860  140.0339  165.1798 C.ar    1  UNL1       -0.0002
     14 C         137.9069  137.9473  166.7024 C.3     1  UNL1        0.4186
     15 F         137.3022  136.5992  166.9606 F       1  UNL1       -0.1659
     16 F         138.6796  137.3798  165.5488 F       1  UNL1       -0.1659
     17 F         137.1342  138.5149  167.8561 F       1  UNL1       -0.1659
     18 C         138.3948  140.5503  160.1081 C.3     1  UNL1        0.0730
     19 C         138.9084  139.1433  160.1877 C.3     1  UNL1        0.0294
     20 C         140.1250  138.7437  159.4066 C.3     1  UNL1        0.0666
     21 S         141.4654  138.6959  160.0784 S.3     1  UNL1       -0.0756
     22 C         142.1900  141.4229  162.7436 C.ar    1  UNL1        0.2029
     23 N         142.0493  140.2042  163.6067 N.ar    1  UNL1       -0.1250
     24 N         141.7608  139.0344  162.7134 N.ar    1  UNL1       -0.1220
     25 C         141.7231  139.5300  161.2981 C.ar    1  UNL1        0.1933
     26 N         141.9884  141.0062  161.3169 N.ar    1  UNL1       -0.2860
     27 C         142.0425  141.9075  160.1190 C.3     1  UNL1        0.1341
     28 C         144.9671  142.4326  164.1285 C.3     1  UNL1        0.0556
     29 C         143.7576  143.2782  163.8596 C.ar    1  UNL1        0.1001
     30 N         143.6123  144.7363  164.1802 N.ar    1  UNL1       -0.2085
     31 C         142.2460  145.1733  163.7418 C.ar    1  UNL1        0.2849
     32 O         141.5470  143.9854  163.1503 O.2     1  UNL1       -0.4283
     33 C         142.4812  142.8141  163.2231 C.ar    1  UNL1        0.1964
@<TRIPOS>BOND
     1    28    29    1
     2    29    30   ar
     3    30    31   ar
     4    31    32   ar
     5    32    33   ar
     6    33    22    1
     7    22    23   ar
     8    23    24   ar
     9    24    25   ar
    10    25    21    1
    11    21    20    1
    12    20    19    1
    13    19    18    1
    14    18     1    1
    15     1     2    1
    16     2     3    1
    17     3     4    1
    18     4     5    1
    19     5     7    1
    20     7     8   ar
    21     8     9   ar
    22     9    10    1
    23     9    11   ar
    24    11    12   ar
    25    12    14    1
    26    14    15    1
    27    14    16    1
    28    14    17    1
    29    12    13   ar
    30     5     6    1
    31    25    26   ar
    32    26    27    1
    33    33    29   ar
    34    26    22   ar
    35     6     1    1
    36     5     3    1
    37    13     7   ar
@<TRIPOS>MOLECULE
*****
 33 37 0 0 0
SMALL
GASTEIGER

@<TRIPOS>ATOM
      1 N         141.4464  142.9331  162.5596 N.3     1  UNL1       -0.2724
      2 C         140.7827  143.9643  163.4234 C.3     1  UNL1        0.0724
      3 C         139.9396  143.2476  164.4362 C.3     1  UNL1        0.0214
      4 C         139.2032  142.2728  165.3064 C.3     1  UNL1        0.0072
      5 C         140.0823  141.7735  164.1983 C.3     1  UNL1        0.0350
      6 C         141.0135  141.5791  163.0385 C.3     1  UNL1        0.0761
      7 C         139.8332  140.3152  164.4456 C.ar    1  UNL1       -0.0193
      8 C         140.5589  139.2824  163.6352 C.ar    1  UNL1        0.0254
      9 C         140.3099  137.8240  163.8824 C.ar    1  UNL1        0.1398
     10 F         141.0356  136.7913  163.0720 F       1  UNL1       -0.2042
     11 C         139.3351  137.3984  164.9400 C.ar    1  UNL1        0.0335
     12 C         138.6093  138.4312  165.7505 C.ar    1  UNL1        0.0733
     13 C         138.8584  139.8895  165.5032 C.ar    1  UNL1       -0.0002
     14 C         137.6345  138.0056  166.8081 C.3     1  UNL1        0.4186
     15 F         136.6597  137.5800  167.8657 F       1  UNL1       -0.1659
     16 F         137.6740  139.3837  167.3991 F       1  UNL1       -0.1659
     17 F         137.5949  136.6275  166.2171 F       1  UNL1       -0.1659
     18 C         142.3791  143.2077  161.4174 C.3     1  UNL1        0.0730
     19 C         143.4767  142.2374  161.0956 C.3     1  UNL1        0.0294
     20 C         144.8265  142.3941  161.7309 C.3     1  UNL1        0.0666
     21 S         145.1497  141.6572  162.9969 S.3     1  UNL1       -0.0756
     22 C         143.1989  141.7534  166.3510 C.ar    1  UNL1        0.2029
     23 N         143.3683  143.2175  166.0720 N.ar    1  UNL1       -0.1250
     24 N         144.1196  143.3596  164.7817 N.ar    1  UNL1       -0.1220
     25 C         144.4147  141.9834  164.2631 C.ar    1  UNL1        0.1933
     26 N         143.8456  140.9908  165.2330 N.ar    1  UNL1       -0.2860
     27 C         143.9117  139.4975  165.1069 C.3     1  UNL1        0.1341
     28 C         143.8576  142.3993  169.4813 C.3     1  UNL1        0.0556
     29 C         142.8074  141.4537  168.9781 C.ar    1  UNL1        0.1001
     30 N         141.8757  140.6389  169.8255 N.ar    1  UNL1       -0.2085
     31 C         140.9971  139.8386  168.9104 C.ar    1  UNL1        0.2849
     32 O         141.3858  140.1586  167.4975 O.2     1  UNL1       -0.4283
     33 C         142.5047  141.1568  167.5394 C.ar    1  UNL1        0.1964
@<TRIPOS>BOND
     1    28    29    1
     2    29    30   ar
     3    30    31   ar
     4    31    32   ar
     5    32    33   ar
     6    33    22    1
     7    22    23   ar
     8    23    24   ar
     9    24    25   ar
    10    25    21    1
    11    21    20    1
    12    20    19    1
    13    19    18    1
    14    18     1    1
    15     1     2    1
    16     2     3    1
    17     3     4    1
    18     4     5    1
    19     5     7    1
    20     7     8   ar
    21     8     9   ar
    22     9    10    1
    23     9    11   ar
    24    11    12   ar
    25    12    14    1
    26    14    15    1
    27    14    16    1
    28    14    17    1
    29    12    13   ar
    30     5     6    1
    31    25    26   ar
    32    26    27    1
    33    33    29   ar
    34    26    22   ar
    35     6     1    1
    36     5     3    1
    37    13     7   ar
