@<TRIPOS>MOLECULE
*****
 33 36 0 0 0
SMALL
GASTEIGER

@<TRIPOS>ATOM
      1 C         140.2694  142.2627  162.3883 C.ar    1  UNL1        0.0505
      2 C         139.9861  143.1240  163.5832 C.ar    1  UNL1        0.0148
      3 C         139.6000  142.4928  164.8880 C.ar    1  UNL1        0.0060
      4 C         139.4972  141.0004  164.9979 C.ar    1  UNL1        0.0553
      5 C         139.7806  140.1391  163.8030 C.ar    1  UNL1        0.0060
      6 C         140.1666  140.7702  162.4982 C.ar    1  UNL1        0.0148
      7 C         139.1111  140.3693  166.3028 C.ar    1  UNL1        0.2512
      8 N         138.2492  139.1535  166.4733 N.ar    1  UNL1       -0.1058
      9 N         138.1245  138.8760  167.9421 N.ar    1  UNL1       -0.0923
     10 C         138.9094  139.9202  168.6794 C.ar    1  UNL1        0.3086
     11 O         139.5192  140.8431  167.6663 O.2     1  UNL1       -0.4048
     12 N         139.0584  140.0234  170.1684 N.pl3   1  UNL1       -0.2871
     13 H         138.2602  140.1097  170.7382 H       1  UNL1        0.1512
     14 C         140.4235  139.9952  170.7893 C.3     1  UNL1        0.0925
     15 C         141.6052  139.5446  169.9827 C.3     1  UNL1        0.0386
     16 C         142.5895  140.5522  169.4671 C.3     1  UNL1        0.0738
     17 N         142.7884  140.7185  167.9897 N.3     1  UNL1       -0.2726
     18 C         142.7859  139.5163  167.0926 C.3     1  UNL1        0.0721
     19 C         142.9847  139.6826  165.6152 C.3     1  UNL1        0.0174
     20 C         143.1861  141.0510  165.0349 C.3     1  UNL1        0.0029
     21 C         143.1887  142.2532  165.9319 C.3     1  UNL1        0.0174
     22 C         142.9898  142.0869  167.4094 C.3     1  UNL1        0.0721
     23 O         138.1458  143.1256  160.4529 O.2     1  UNL1       -0.2697
     24 C         139.5937  143.3252  160.1157 C.2     1  UNL1        0.2517
     25 N         140.6555  142.8938  161.0834 N.am    1  UNL1       -0.2803
     26 H         141.6058  143.0248  160.8621 H       1  UNL1        0.1552
     27 C         139.9798  143.9563  158.8108 C.ar    1  UNL1        0.0811
     28 C         139.4936  143.3673  157.5199 C.ar    1  UNL1        0.0068
     29 C         139.8797  143.9984  156.2151 C.ar    1  UNL1        0.0003
     30 C         140.7520  145.2186  156.2012 C.ar    1  UNL1        0.0023
     31 C         141.2383  145.8076  157.4921 C.ar    1  UNL1        0.0298
     32 C         140.8522  145.1765  158.7969 C.ar    1  UNL1        0.1445
     33 F         141.3384  145.7656  160.0880 F       1  UNL1       -0.2040
@<TRIPOS>BOND
     1    23    24    2
     2    24    25   am
     3    25     1    1
     4     1     2   ar
     5     2     3   ar
     6     3     4   ar
     7     4     7    1
     8     7     8   ar
     9     8     9   ar
    10     9    10   ar
    11    10    12    1
    12    12    14    1
    13    14    15    1
    14    15    16    1
    15    16    17    1
    16    17    18    1
    17    18    19    1
    18    19    20    1
    19    20    21    1
    20    21    22    1
    21    10    11   ar
    22     4     5   ar
    23     5     6   ar
    24    24    27    1
    25    27    28   ar
    26    28    29   ar
    27    29    30   ar
    28    30    31   ar
    29    31    32   ar
    30    32    33    1
    31     6     1   ar
    32    32    27   ar
    33    11     7   ar
    34    22    17    1
    35    25    26    1
    36    12    13    1
@<TRIPOS>MOLECULE
*****
 33 36 0 0 0
SMALL
GASTEIGER

@<TRIPOS>ATOM
      1 C         138.9136  138.7732  162.3447 C.ar    1  UNL1        0.0505
      2 C         139.2658  137.6319  163.2521 C.ar    1  UNL1        0.0148
      3 C         139.1054  137.7769  164.7364 C.ar    1  UNL1        0.0060
      4 C         138.5929  139.0632  165.3133 C.ar    1  UNL1        0.0553
      5 C         138.2407  140.2044  164.4059 C.ar    1  UNL1        0.0060
      6 C         138.4011  140.0594  162.9216 C.ar    1  UNL1        0.0148
      7 C         138.4325  139.2081  166.7977 C.ar    1  UNL1        0.2512
      8 N         137.4430  138.4743  167.6534 N.ar    1  UNL1       -0.1058
      9 N         137.6324  138.9249  169.0715 N.ar    1  UNL1       -0.0923
     10 C         138.7391  139.9373  169.0922 C.ar    1  UNL1        0.3086
     11 O         139.2336  140.1123  167.6869 O.2     1  UNL1       -0.4048
     12 N         139.2598  140.6496  170.3052 N.pl3   1  UNL1       -0.2871
     13 H         138.6370  141.1212  170.9044 H       1  UNL1        0.1512
     14 C         140.7295  140.6435  170.6054 C.3     1  UNL1        0.0925
     15 C         141.6135  139.5918  170.0034 C.3     1  UNL1        0.0386
     16 C         142.7571  139.9901  169.1182 C.3     1  UNL1        0.0738
     17 N         142.5259  140.2269  167.6552 N.3     1  UNL1       -0.2726
     18 C         142.5804  139.0786  166.6916 C.3     1  UNL1        0.0721
     19 C         142.3492  139.3155  165.2287 C.3     1  UNL1        0.0174
     20 C         142.0635  140.7007  164.7291 C.3     1  UNL1        0.0029
     21 C         142.0089  141.8490  165.6926 C.3     1  UNL1        0.0174
     22 C         142.2401  141.6121  167.1557 C.3     1  UNL1        0.0721
     23 O         141.6309  139.0225  161.0980 O.2     1  UNL1       -0.2697
     24 C         140.4326  138.7529  160.2370 C.2     1  UNL1        0.2517
     25 N         139.0740  138.6282  160.8603 N.am    1  UNL1       -0.2803
     26 H         138.2875  138.4513  160.2952 H       1  UNL1        0.1552
     27 C         140.5929  138.6080  158.7526 C.ar    1  UNL1        0.0811
     28 C         139.5165  139.0988  157.8305 C.ar    1  UNL1        0.0068
     29 C         139.6769  138.9538  156.3461 C.ar    1  UNL1        0.0003
     30 C         140.9137  138.3180  155.7840 C.ar    1  UNL1        0.0023
     31 C         141.9901  137.8272  156.7061 C.ar    1  UNL1        0.0298
     32 C         141.8297  137.9722  158.1904 C.ar    1  UNL1        0.1445
     33 F         142.9062  137.4814  159.1126 F       1  UNL1       -0.2040
@<TRIPOS>BOND
     1    23    24    2
     2    24    25   am
     3    25     1    1
     4     1     2   ar
     5     2     3   ar
     6     3     4   ar
     7     4     7    1
     8     7     8   ar
     9     8     9   ar
    10     9    10   ar
    11    10    12    1
    12    12    14    1
    13    14    15    1
    14    15    16    1
    15    16    17    1
    16    17    18    1
    17    18    19    1
    18    19    20    1
    19    20    21    1
    20    21    22    1
    21    10    11   ar
    22     4     5   ar
    23     5     6   ar
    24    24    27    1
    25    27    28   ar
    26    28    29   ar
    27    29    30   ar
    28    30    31   ar
    29    31    32   ar
    30    32    33    1
    31     6     1   ar
    32    32    27   ar
    33    11     7   ar
    34    22    17    1
    35    25    26    1
    36    12    13    1
@<TRIPOS>MOLECULE
*****
 33 36 0 0 0
SMALL
GASTEIGER

@<TRIPOS>ATOM
      1 C         142.6123  138.0339  158.2269 C.ar    1  UNL1        0.0505
      2 C         142.6903  139.4559  157.7559 C.ar    1  UNL1        0.0148
      3 C         143.1577  140.5312  158.6914 C.ar    1  UNL1        0.0060
      4 C         143.5470  140.1845  160.0980 C.ar    1  UNL1        0.0553
      5 C         143.4690  138.7626  160.5689 C.ar    1  UNL1        0.0060
      6 C         143.0016  137.6873  159.6334 C.ar    1  UNL1        0.0148
      7 C         144.0144  141.2599  161.0335 C.ar    1  UNL1        0.2512
      8 N         145.0422  141.1025  162.1146 N.ar    1  UNL1       -0.1058
      9 N         145.1991  142.4268  162.8015 N.ar    1  UNL1       -0.0923
     10 C         144.2681  143.4026  162.1448 C.ar    1  UNL1        0.3086
     11 O         143.5359  142.6814  161.0522 O.2     1  UNL1       -0.4048
     12 N         144.0990  144.8462  162.5158 N.pl3   1  UNL1       -0.2871
     13 H         144.5151  145.5480  161.9648 H       1  UNL1        0.1512
     14 C         143.2959  145.2204  163.7261 C.3     1  UNL1        0.0925
     15 C         141.8024  145.0822  163.7074 C.3     1  UNL1        0.0386
     16 C         141.1363  144.0272  164.5401 C.3     1  UNL1        0.0738
     17 N         141.5000  142.5840  164.3535 N.3     1  UNL1       -0.2726
     18 C         140.8243  141.7717  163.2888 C.3     1  UNL1        0.0721
     19 C         141.1880  140.3286  163.1023 C.3     1  UNL1        0.0174
     20 C         142.2275  139.6975  163.9805 C.3     1  UNL1        0.0029
     21 C         142.9033  140.5097  165.0452 C.3     1  UNL1        0.0174
     22 C         142.5395  141.9530  165.2317 C.3     1  UNL1        0.0721
     23 O         144.3980  137.0982  156.0052 O.2     1  UNL1       -0.2697
     24 C         143.0378  136.4907  156.1806 C.2     1  UNL1        0.2517
     25 N         142.1449  136.9585  157.2913 N.am    1  UNL1       -0.2803
     26 H         141.2522  136.5598  157.4064 H       1  UNL1        0.1552
     27 C         142.5704  135.4153  155.2450 C.ar    1  UNL1        0.0811
     28 C         142.2862  135.7420  153.8089 C.ar    1  UNL1        0.0068
     29 C         141.8189  134.6666  152.8734 C.ar    1  UNL1        0.0003
     30 C         141.6357  133.2645  153.3741 C.ar    1  UNL1        0.0023
     31 C         141.9199  132.9378  154.8102 C.ar    1  UNL1        0.0298
     32 C         142.3872  134.0132  155.7457 C.ar    1  UNL1        0.1445
     33 F         142.6715  133.6865  157.1819 F       1  UNL1       -0.2040
@<TRIPOS>BOND
     1    23    24    2
     2    24    25   am
     3    25     1    1
     4     1     2   ar
     5     2     3   ar
     6     3     4   ar
     7     4     7    1
     8     7     8   ar
     9     8     9   ar
    10     9    10   ar
    11    10    12    1
    12    12    14    1
    13    14    15    1
    14    15    16    1
    15    16    17    1
    16    17    18    1
    17    18    19    1
    18    19    20    1
    19    20    21    1
    20    21    22    1
    21    10    11   ar
    22     4     5   ar
    23     5     6   ar
    24    24    27    1
    25    27    28   ar
    26    28    29   ar
    27    29    30   ar
    28    30    31   ar
    29    31    32   ar
    30    32    33    1
    31     6     1   ar
    32    32    27   ar
    33    11     7   ar
    34    22    17    1
    35    25    26    1
    36    12    13    1
@<TRIPOS>MOLECULE
*****
 33 36 0 0 0
SMALL
GASTEIGER

@<TRIPOS>ATOM
      1 C         142.7008  137.8241  158.3123 C.ar    1  UNL1        0.0505
      2 C         142.9997  137.5071  159.7476 C.ar    1  UNL1        0.0148
      3 C         143.4669  138.5909  160.6734 C.ar    1  UNL1        0.0060
      4 C         143.6352  139.9916  160.1639 C.ar    1  UNL1        0.0553
      5 C         143.3363  140.3086  158.7286 C.ar    1  UNL1        0.0060
      6 C         142.8691  139.2248  157.8028 C.ar    1  UNL1        0.0148
      7 C         144.1025  141.0754  161.0898 C.ar    1  UNL1        0.2512
      8 N         145.0496  140.9044  162.2403 N.ar    1  UNL1       -0.1058
      9 N         145.2371  142.2437  162.8893 N.ar    1  UNL1       -0.0923
     10 C         144.4059  143.2424  162.1397 C.ar    1  UNL1        0.3086
     11 O         143.7046  142.5203  161.0276 O.2     1  UNL1       -0.4048
     12 N         144.2953  144.7062  162.4482 N.pl3   1  UNL1       -0.2871
     13 H         144.6187  145.3719  161.7990 H       1  UNL1        0.1512
     14 C         143.6920  145.1557  163.7459 C.3     1  UNL1        0.0925
     15 C         142.2011  145.1922  163.9070 C.3     1  UNL1        0.0386
     16 C         141.3156  145.1908  162.6963 C.3     1  UNL1        0.0738
     17 N         140.1429  144.2583  162.6258 N.3     1  UNL1       -0.2726
     18 C         138.8109  144.6860  163.1671 C.3     1  UNL1        0.0721
     19 C         137.6383  143.7534  163.0967 C.3     1  UNL1        0.0174
     20 C         137.7974  142.3931  162.4850 C.3     1  UNL1        0.0029
     21 C         139.1293  141.9654  161.9437 C.3     1  UNL1        0.0174
     22 C         140.3021  142.8980  162.0141 C.3     1  UNL1        0.0721
     23 O         144.3977  137.0129  155.9751 O.2     1  UNL1       -0.2697
     24 C         143.0820  136.3347  156.2179 C.2     1  UNL1        0.2517
     25 N         142.2335  136.7403  157.3865 N.am    1  UNL1       -0.2803
     26 H         141.3700  136.2952  157.5458 H       1  UNL1        0.1552
     27 C         142.6147  135.2509  155.2920 C.ar    1  UNL1        0.0811
     28 C         142.3324  135.5643  153.8526 C.ar    1  UNL1        0.0068
     29 C         141.8651  134.4805  152.9268 C.ar    1  UNL1        0.0003
     30 C         141.6803  133.0834  153.4405 C.ar    1  UNL1        0.0023
     31 C         141.9627  132.7700  154.8799 C.ar    1  UNL1        0.0298
     32 C         142.4299  133.8538  155.8057 C.ar    1  UNL1        0.1445
     33 F         142.7123  133.5404  157.2452 F       1  UNL1       -0.2040
@<TRIPOS>BOND
     1    23    24    2
     2    24    25   am
     3    25     1    1
     4     1     2   ar
     5     2     3   ar
     6     3     4   ar
     7     4     7    1
     8     7     8   ar
     9     8     9   ar
    10     9    10   ar
    11    10    12    1
    12    12    14    1
    13    14    15    1
    14    15    16    1
    15    16    17    1
    16    17    18    1
    17    18    19    1
    18    19    20    1
    19    20    21    1
    20    21    22    1
    21    10    11   ar
    22     4     5   ar
    23     5     6   ar
    24    24    27    1
    25    27    28   ar
    26    28    29   ar
    27    29    30   ar
    28    30    31   ar
    29    31    32   ar
    30    32    33    1
    31     6     1   ar
    32    32    27   ar
    33    11     7   ar
    34    22    17    1
    35    25    26    1
    36    12    13    1
@<TRIPOS>MOLECULE
*****
 33 36 0 0 0
SMALL
GASTEIGER

@<TRIPOS>ATOM
      1 C         143.3369  143.1600  158.2575 C.ar    1  UNL1        0.0505
      2 C         143.5671  142.8776  159.7126 C.ar    1  UNL1        0.0148
      3 C         142.4113  142.8775  160.6686 C.ar    1  UNL1        0.0060
      4 C         141.0252  143.1598  160.1696 C.ar    1  UNL1        0.0553
      5 C         140.7949  143.4421  158.7145 C.ar    1  UNL1        0.0060
      6 C         141.9507  143.4423  157.7585 C.ar    1  UNL1        0.0148
      7 C         139.8693  143.1596  161.1257 C.ar    1  UNL1        0.2512
      8 N         138.8618  144.2585  161.2911 N.ar    1  UNL1       -0.1058
      9 N         137.8879  143.8387  162.3518 N.ar    1  UNL1       -0.0923
     10 C         138.2935  142.4802  162.8419 C.ar    1  UNL1        0.3086
     11 O         139.5181  142.0606  162.0841 O.2     1  UNL1       -0.4048
     12 N         137.5968  141.6817  163.9035 N.pl3   1  UNL1       -0.2871
     13 H         136.6387  141.4736  163.8138 H       1  UNL1        0.1512
     14 C         138.3598  141.2002  165.1018 C.3     1  UNL1        0.0925
     15 C         139.4534  142.0458  165.6841 C.3     1  UNL1        0.0386
     16 C         140.8840  141.7740  165.3242 C.3     1  UNL1        0.0738
     17 N         141.7323  142.8670  164.7450 N.3     1  UNL1       -0.2726
     18 C         141.1123  144.1824  164.3768 C.3     1  UNL1        0.0721
     19 C         141.9606  145.2754  163.7976 C.3     1  UNL1        0.0174
     20 C         143.4290  145.0532  163.5865 C.3     1  UNL1        0.0029
     21 C         144.0490  143.7379  163.9547 C.3     1  UNL1        0.0174
     22 C         143.2006  142.6448  164.5339 C.3     1  UNL1        0.0721
     23 O         144.3605  140.5704  157.1412 O.2     1  UNL1       -0.2697
     24 C         145.0045  141.8654  156.7433 C.2     1  UNL1        0.2517
     25 N         144.4927  143.1602  157.3014 N.am    1  UNL1       -0.2803
     26 H         144.9154  144.0101  157.0403 H       1  UNL1        0.1552
     27 C         146.1604  141.8655  155.7872 C.ar    1  UNL1        0.0811
     28 C         145.9610  141.4183  154.3694 C.ar    1  UNL1        0.0068
     29 C         147.1168  141.4185  153.4134 C.ar    1  UNL1        0.0003
     30 C         148.4721  141.8659  153.8752 C.ar    1  UNL1        0.0023
     31 C         148.6714  142.3131  155.2930 C.ar    1  UNL1        0.0298
     32 C         147.5156  142.3129  156.2490 C.ar    1  UNL1        0.1445
     33 F         147.7150  142.7601  157.6669 F       1  UNL1       -0.2040
@<TRIPOS>BOND
     1    23    24    2
     2    24    25   am
     3    25     1    1
     4     1     2   ar
     5     2     3   ar
     6     3     4   ar
     7     4     7    1
     8     7     8   ar
     9     8     9   ar
    10     9    10   ar
    11    10    12    1
    12    12    14    1
    13    14    15    1
    14    15    16    1
    15    16    17    1
    16    17    18    1
    17    18    19    1
    18    19    20    1
    19    20    21    1
    20    21    22    1
    21    10    11   ar
    22     4     5   ar
    23     5     6   ar
    24    24    27    1
    25    27    28   ar
    26    28    29   ar
    27    29    30   ar
    28    30    31   ar
    29    31    32   ar
    30    32    33    1
    31     6     1   ar
    32    32    27   ar
    33    11     7   ar
    34    22    17    1
    35    25    26    1
    36    12    13    1
@<TRIPOS>MOLECULE
*****
 33 36 0 0 0
SMALL
GASTEIGER

@<TRIPOS>ATOM
      1 C         141.9181  138.4152  162.6448 C.ar    1  UNL1        0.0505
      2 C         143.3286  138.1094  162.2360 C.ar    1  UNL1        0.0148
      3 C         143.6934  138.0572  160.7820 C.ar    1  UNL1        0.0060
      4 C         142.6478  138.3109  159.7368 C.ar    1  UNL1        0.0553
      5 C         141.2374  138.6167  160.1456 C.ar    1  UNL1        0.0060
      6 C         140.8726  138.6688  161.5996 C.ar    1  UNL1        0.0148
      7 C         143.0128  138.2587  158.2828 C.ar    1  UNL1        0.2512
      8 N         143.7773  139.3052  157.5275 N.ar    1  UNL1       -0.1058
      9 N         143.9143  138.8441  156.1067 N.ar    1  UNL1       -0.0923
     10 C         143.2344  137.5127  155.9839 C.ar    1  UNL1        0.3086
     11 O         142.6772  137.1509  157.3287 O.2     1  UNL1       -0.4048
     12 N         143.1300  136.6879  154.7353 N.pl3   1  UNL1       -0.2871
     13 H         143.9178  136.5682  154.1571 H       1  UNL1        0.1512
     14 C         141.8253  136.0455  154.3677 C.3     1  UNL1        0.0925
     15 C         141.4712  134.6968  154.9206 C.3     1  UNL1        0.0386
     16 C         142.3302  133.5081  154.6056 C.3     1  UNL1        0.0738
     17 N         143.3021  132.9938  155.6257 N.3     1  UNL1       -0.2726
     18 C         144.0359  131.7085  155.3814 C.3     1  UNL1        0.0721
     19 C         145.0079  131.1942  156.4015 C.3     1  UNL1        0.0174
     20 C         145.2460  131.9650  157.6661 C.3     1  UNL1        0.0029
     21 C         144.5122  133.2502  157.9105 C.3     1  UNL1        0.0174
     22 C         143.5402  133.7646  156.8903 C.3     1  UNL1        0.0721
     23 O         142.2722  140.9624  164.1897 O.2     1  UNL1       -0.2697
     24 C         141.7302  139.7410  164.8713 C.2     1  UNL1        0.2517
     25 N         141.5532  138.4674  164.0988 N.am    1  UNL1       -0.2803
     26 H         141.1975  137.6658  164.5461 H       1  UNL1        0.1552
     27 C         141.3653  139.7932  166.3253 C.ar    1  UNL1        0.0811
     28 C         142.4280  139.6317  167.3715 C.ar    1  UNL1        0.0068
     29 C         142.0631  139.6839  168.8255 C.ar    1  UNL1        0.0003
     30 C         140.6354  139.8975  169.2332 C.ar    1  UNL1        0.0023
     31 C         139.5728  140.0590  168.1870 C.ar    1  UNL1        0.0298
     32 C         139.9377  140.0068  166.7331 C.ar    1  UNL1        0.1445
     33 F         138.8750  140.1682  165.6867 F       1  UNL1       -0.2040
@<TRIPOS>BOND
     1    23    24    2
     2    24    25   am
     3    25     1    1
     4     1     2   ar
     5     2     3   ar
     6     3     4   ar
     7     4     7    1
     8     7     8   ar
     9     8     9   ar
    10     9    10   ar
    11    10    12    1
    12    12    14    1
    13    14    15    1
    14    15    16    1
    15    16    17    1
    16    17    18    1
    17    18    19    1
    18    19    20    1
    19    20    21    1
    20    21    22    1
    21    10    11   ar
    22     4     5   ar
    23     5     6   ar
    24    24    27    1
    25    27    28   ar
    26    28    29   ar
    27    29    30   ar
    28    30    31   ar
    29    31    32   ar
    30    32    33    1
    31     6     1   ar
    32    32    27   ar
    33    11     7   ar
    34    22    17    1
    35    25    26    1
    36    12    13    1
@<TRIPOS>MOLECULE
*****
 33 36 0 0 0
SMALL
GASTEIGER

@<TRIPOS>ATOM
      1 C         139.9941  143.6403  163.7378 C.ar    1  UNL1        0.0505
      2 C         140.0054  145.1137  163.4572 C.ar    1  UNL1        0.0148
      3 C         140.3560  145.6136  162.0871 C.ar    1  UNL1        0.0060
      4 C         140.6953  144.6400  160.9976 C.ar    1  UNL1        0.0553
      5 C         140.6840  143.1665  161.2782 C.ar    1  UNL1        0.0060
      6 C         140.3334  142.6667  162.6483 C.ar    1  UNL1        0.0148
      7 C         141.0458  145.1399  159.6275 C.ar    1  UNL1        0.2512
      8 N         142.3695  144.9760  158.9411 N.ar    1  UNL1       -0.1058
      9 N         142.2761  145.6262  157.5926 N.ar    1  UNL1       -0.0923
     10 C         140.8947  146.1921  157.4456 C.ar    1  UNL1        0.3086
     11 O         140.1344  145.8915  158.7032 O.2     1  UNL1       -0.4048
     12 N         140.3664  146.9292  156.2507 N.pl3   1  UNL1       -0.2871
     13 H         140.4865  147.9038  156.1809 H       1  UNL1        0.1512
     14 C         139.6550  146.1812  155.1624 C.3     1  UNL1        0.0925
     15 C         138.2148  145.7983  155.3331 C.3     1  UNL1        0.0386
     16 C         137.7402  144.4469  154.8876 C.3     1  UNL1        0.0738
     17 N         137.7042  143.3062  155.8609 N.3     1  UNL1       -0.2726
     18 C         138.7045  143.2405  156.9768 C.3     1  UNL1        0.0721
     19 C         138.6686  142.0998  157.9500 C.3     1  UNL1        0.0174
     20 C         137.6324  141.0246  157.8075 C.3     1  UNL1        0.0029
     21 C         136.6321  141.0903  156.6917 C.3     1  UNL1        0.0174
     22 C         136.6680  142.2311  155.7184 C.3     1  UNL1        0.0721
     23 O         142.1589  142.7084  165.5940 O.2     1  UNL1       -0.2697
     24 C         140.7259  142.6744  166.0360 C.2     1  UNL1        0.2517
     25 N         139.6435  143.1404  165.1079 N.am    1  UNL1       -0.2803
     26 H         138.7030  143.1180  165.3981 H       1  UNL1        0.1552
     27 C         140.3753  142.1745  167.4062 C.ar    1  UNL1        0.0811
     28 C         140.4572  143.0981  168.5852 C.ar    1  UNL1        0.0068
     29 C         140.1066  142.5982  169.9552 C.ar    1  UNL1        0.0003
     30 C         139.6742  141.1746  170.1463 C.ar    1  UNL1        0.0023
     31 C         139.5923  140.2510  168.9672 C.ar    1  UNL1        0.0298
     32 C         139.9429  140.7509  167.5972 C.ar    1  UNL1        0.1445
     33 F         139.8611  139.8273  166.4180 F       1  UNL1       -0.2040
@<TRIPOS>BOND
     1    23    24    2
     2    24    25   am
     3    25     1    1
     4     1     2   ar
     5     2     3   ar
     6     3     4   ar
     7     4     7    1
     8     7     8   ar
     9     8     9   ar
    10     9    10   ar
    11    10    12    1
    12    12    14    1
    13    14    15    1
    14    15    16    1
    15    16    17    1
    16    17    18    1
    17    18    19    1
    18    19    20    1
    19    20    21    1
    20    21    22    1
    21    10    11   ar
    22     4     5   ar
    23     5     6   ar
    24    24    27    1
    25    27    28   ar
    26    28    29   ar
    27    29    30   ar
    28    30    31   ar
    29    31    32   ar
    30    32    33    1
    31     6     1   ar
    32    32    27   ar
    33    11     7   ar
    34    22    17    1
    35    25    26    1
    36    12    13    1
@<TRIPOS>MOLECULE
*****
 33 36 0 0 0
SMALL
GASTEIGER

@<TRIPOS>ATOM
      1 C         142.1990  139.9174  164.0289 C.ar    1  UNL1        0.0505
      2 C         143.0491  138.7612  163.5925 C.ar    1  UNL1        0.0148
      3 C         143.2371  138.4779  162.1316 C.ar    1  UNL1        0.0060
      4 C         142.5749  139.3507  161.1070 C.ar    1  UNL1        0.0553
      5 C         141.7248  140.5069  161.5434 C.ar    1  UNL1        0.0060
      6 C         141.5368  140.7902  163.0043 C.ar    1  UNL1        0.0148
      7 C         142.7630  139.0674  159.6460 C.ar    1  UNL1        0.2512
      8 N         143.9701  139.4190  158.8279 N.ar    1  UNL1       -0.1058
      9 N         143.7301  138.9516  157.4230 N.ar    1  UNL1       -0.0923
     10 C         142.3746  138.3111  157.3728 C.ar    1  UNL1        0.3086
     11 O         141.7769  138.3826  158.7467 O.2     1  UNL1       -0.4048
     12 N         141.7300  137.7053  156.1613 N.pl3   1  UNL1       -0.2871
     13 H         141.5433  138.2635  155.3721 H       1  UNL1        0.1512
     14 C         141.3700  136.2492  156.1523 C.3     1  UNL1        0.0925
     15 C         142.3350  135.2414  155.6015 C.3     1  UNL1        0.0386
     16 C         142.0287  133.7765  155.7028 C.3     1  UNL1        0.0738
     17 N         142.9571  132.8662  156.4505 N.3     1  UNL1       -0.2726
     18 C         144.1265  133.4362  157.1973 C.3     1  UNL1        0.0721
     19 C         145.0549  132.5259  157.9450 C.3     1  UNL1        0.0174
     20 C         144.8139  131.0453  157.9461 C.3     1  UNL1        0.0029
     21 C         143.6446  130.4753  157.1994 C.3     1  UNL1        0.0174
     22 C         142.7162  131.3857  156.4516 C.3     1  UNL1        0.0721
     23 O         140.0273  138.5244  165.5597 O.2     1  UNL1       -0.2697
     24 C         140.9251  139.5043  166.2552 C.2     1  UNL1        0.2517
     25 N         142.0110  140.2007  165.4899 N.am    1  UNL1       -0.2803
     26 H         142.6003  140.8438  165.9464 H       1  UNL1        0.1552
     27 C         140.7371  139.7876  167.7162 C.ar    1  UNL1        0.0811
     28 C         139.4088  140.2665  168.2225 C.ar    1  UNL1        0.0068
     29 C         139.2209  140.5498  169.6834 C.ar    1  UNL1        0.0003
     30 C         140.3612  140.3543  170.6381 C.ar    1  UNL1        0.0023
     31 C         141.6895  139.8755  170.1319 C.ar    1  UNL1        0.0298
     32 C         141.8774  139.5921  168.6709 C.ar    1  UNL1        0.1445
     33 F         143.2058  139.1132  168.1646 F       1  UNL1       -0.2040
@<TRIPOS>BOND
     1    23    24    2
     2    24    25   am
     3    25     1    1
     4     1     2   ar
     5     2     3   ar
     6     3     4   ar
     7     4     7    1
     8     7     8   ar
     9     8     9   ar
    10     9    10   ar
    11    10    12    1
    12    12    14    1
    13    14    15    1
    14    15    16    1
    15    16    17    1
    16    17    18    1
    17    18    19    1
    18    19    20    1
    19    20    21    1
    20    21    22    1
    21    10    11   ar
    22     4     5   ar
    23     5     6   ar
    24    24    27    1
    25    27    28   ar
    26    28    29   ar
    27    29    30   ar
    28    30    31   ar
    29    31    32   ar
    30    32    33    1
    31     6     1   ar
    32    32    27   ar
    33    11     7   ar
    34    22    17    1
    35    25    26    1
    36    12    13    1
@<TRIPOS>MOLECULE
*****
 33 36 0 0 0
SMALL
GASTEIGER

@<TRIPOS>ATOM
      1 C         138.0304  139.5944  161.2064 C.ar    1  UNL1        0.0505
      2 C         137.6308  140.7538  162.0701 C.ar    1  UNL1        0.0148
      3 C         137.7769  140.6643  163.5602 C.ar    1  UNL1        0.0060
      4 C         138.3226  139.4154  164.1867 C.ar    1  UNL1        0.0553
      5 C         138.7223  138.2560  163.3230 C.ar    1  UNL1        0.0060
      6 C         138.5762  138.3455  161.8329 C.ar    1  UNL1        0.0148
      7 C         138.4687  139.3260  165.6769 C.ar    1  UNL1        0.2512
      8 N         137.4543  138.7674  166.6303 N.ar    1  UNL1       -0.1058
      9 N         138.0135  138.8756  168.0180 N.ar    1  UNL1       -0.0923
     10 C         139.3735  139.5011  167.9222 C.ar    1  UNL1        0.3086
     11 O         139.6549  139.7794  166.4754 O.2     1  UNL1       -0.4048
     12 N         140.2911  139.7963  169.0715 N.pl3   1  UNL1       -0.2871
     13 H         141.2169  139.4616  169.0608 H       1  UNL1        0.1512
     14 C         139.7982  140.6016  170.2370 C.3     1  UNL1        0.0925
     15 C         139.7093  142.0953  170.1327 C.3     1  UNL1        0.0386
     16 C         140.8741  142.8811  169.6077 C.3     1  UNL1        0.0738
     17 N         141.3052  142.7201  168.1802 N.3     1  UNL1       -0.2726
     18 C         142.6790  142.2070  167.8648 C.3     1  UNL1        0.0721
     19 C         143.1101  142.0460  166.4372 C.3     1  UNL1        0.0174
     20 C         142.1674  142.3980  165.3248 C.3     1  UNL1        0.0029
     21 C         140.7936  142.9110  165.6401 C.3     1  UNL1        0.0174
     22 C         140.3625  143.0721  167.0678 C.3     1  UNL1        0.0721
     23 O         140.0592  141.0992  159.5879 O.2     1  UNL1       -0.2697
     24 C         138.8987  140.4362  158.9069 C.2     1  UNL1        0.2517
     25 N         137.8843  139.6838  159.7162 N.am    1  UNL1       -0.2803
     26 H         137.1226  139.2486  159.2692 H       1  UNL1        0.1552
     27 C         138.7526  140.5256  157.4167 C.ar    1  UNL1        0.0811
     28 C         139.3620  139.4731  156.5388 C.ar    1  UNL1        0.0068
     29 C         139.2159  139.5625  155.0487 C.ar    1  UNL1        0.0003
     30 C         138.4603  140.7046  154.4364 C.ar    1  UNL1        0.0023
     31 C         137.8509  141.7571  155.3142 C.ar    1  UNL1        0.0298
     32 C         137.9970  141.6676  156.8044 C.ar    1  UNL1        0.1445
     33 F         137.3875  142.7202  157.6823 F       1  UNL1       -0.2040
@<TRIPOS>BOND
     1    23    24    2
     2    24    25   am
     3    25     1    1
     4     1     2   ar
     5     2     3   ar
     6     3     4   ar
     7     4     7    1
     8     7     8   ar
     9     8     9   ar
    10     9    10   ar
    11    10    12    1
    12    12    14    1
    13    14    15    1
    14    15    16    1
    15    16    17    1
    16    17    18    1
    17    18    19    1
    18    19    20    1
    19    20    21    1
    20    21    22    1
    21    10    11   ar
    22     4     5   ar
    23     5     6   ar
    24    24    27    1
    25    27    28   ar
    26    28    29   ar
    27    29    30   ar
    28    30    31   ar
    29    31    32   ar
    30    32    33    1
    31     6     1   ar
    32    32    27   ar
    33    11     7   ar
    34    22    17    1
    35    25    26    1
    36    12    13    1
