@<TRIPOS>MOLECULE
*****
 34 38 0 0 0
SMALL
GASTEIGER

@<TRIPOS>ATOM
      1 N         139.8135  141.5515  165.7288 N.3     1  UNL1       -0.2678
      2 C         140.3827  142.2795  166.9103 C.3     1  UNL1        0.1039
      3 C         140.3617  141.8779  168.3554 C.ar    1  UNL1        0.0471
      4 C         141.0474  142.8962  169.2172 C.ar    1  UNL1        0.0033
      5 C         141.1376  142.6855  170.6996 C.ar    1  UNL1        0.0206
      6 C         140.5421  141.4566  171.3201 C.ar    1  UNL1        0.1020
      7 N         139.8564  140.4383  170.4583 N.ar    1  UNL1       -0.2104
      8 C         139.7662  140.6489  168.9759 C.ar    1  UNL1        0.2220
      9 O         139.0447  139.5181  168.3046 O.3     1  UNL1       -0.4589
     10 C         138.7404  139.3369  166.8470 C.3     1  UNL1        0.2232
     11 C         139.0826  140.2419  165.7007 C.3     1  UNL1        0.1062
     12 N         140.3723  143.5618  161.7418 N.pl3   1  UNL1       -0.2769
     13 C         141.5315  142.8814  162.4077 C.3     1  UNL1        0.0950
     14 C         141.3452  142.2113  163.7368 C.3     1  UNL1        0.0375
     15 C         139.9997  142.2216  164.3998 C.3     1  UNL1        0.0613
     16 C         138.8405  142.9019  163.7339 C.3     1  UNL1        0.0375
     17 C         139.0268  143.5720  162.4049 C.3     1  UNL1        0.0950
     18 N         142.5107  146.2340  157.7210 N.pl3   1  UNL1       -0.3278
     19 C         141.5415  145.4602  158.5647 C.ar    1  UNL1        0.2099
     20 N         141.7946  144.9447  159.9503 N.ar    1  UNL1       -0.1804
     21 C         140.5585  144.2318  160.4128 C.ar    1  UNL1        0.2395
     22 N         139.5414  144.3068  159.3129 N.ar    1  UNL1       -0.1349
     23 N         140.1489  145.0659  158.1707 N.ar    1  UNL1       -0.2453
     24 H         143.4069  146.4454  158.0694 H       1  UNL1        0.1451
     25 H         142.2506  146.5306  156.8190 H       1  UNL1        0.1451
     26 H         139.7105  145.2696  157.3130 H       1  UNL1        0.1919
     27 C         138.6346  139.7756  164.3472 C.3     1  UNL1        0.0461
     28 C         139.6293  139.1928  163.3876 C.ar    1  UNL1       -0.0207
     29 C         140.7176  138.2913  163.8907 C.ar    1  UNL1       -0.0034
     30 C         141.7122  137.7085  162.9311 C.ar    1  UNL1        0.0111
     31 C         141.6187  138.0271  161.4683 C.ar    1  UNL1        0.0577
     32 CL        142.6134  137.4442  160.5087 Cl      1  UNL1       -0.0822
     33 C         140.5305  138.9285  160.9651 C.ar    1  UNL1        0.0111
     34 C         139.5357  139.5113  161.9248 C.ar    1  UNL1       -0.0034
@<TRIPOS>BOND
     1    18    19    1
     2    19    20   ar
     3    20    21   ar
     4    21    12    1
     5    12    13    1
     6    13    14    1
     7    14    15    1
     8    15     1    1
     9     1     2    1
    10     2     3    1
    11     3     4   ar
    12     4     5   ar
    13     5     6   ar
    14     6     7   ar
    15     7     8   ar
    16     8     9    1
    17     9    10    1
    18    10    11    1
    19    11    27    1
    20    27    28    1
    21    28    29   ar
    22    29    30   ar
    23    30    31   ar
    24    31    32    1
    25    31    33   ar
    26    33    34   ar
    27    15    16    1
    28    16    17    1
    29    21    22   ar
    30    22    23   ar
    31    23    19   ar
    32    17    12    1
    33    11     1    1
    34    34    28   ar
    35     8     3   ar
    36    18    24    1
    37    18    25    1
    38    23    26    1
@<TRIPOS>MOLECULE
*****
 34 38 0 0 0
SMALL
GASTEIGER

@<TRIPOS>ATOM
      1 N         142.2662  141.2504  165.8116 N.3     1  UNL1       -0.2678
      2 C         142.1606  142.0196  167.0951 C.3     1  UNL1        0.1039
      3 C         142.3737  141.5325  168.4977 C.ar    1  UNL1        0.0471
      4 C         142.1676  142.6321  169.4969 C.ar    1  UNL1        0.0033
      5 C         142.3328  142.3549  170.9618 C.ar    1  UNL1        0.0206
      6 C         142.7041  140.9782  171.4274 C.ar    1  UNL1        0.1020
      7 N         142.9101  139.8786  170.4282 N.ar    1  UNL1       -0.2104
      8 C         142.7449  140.1558  168.9633 C.ar    1  UNL1        0.2220
      9 O         142.9947  138.9262  168.1413 O.3     1  UNL1       -0.4589
     10 C         142.9351  138.7696  166.6507 C.3     1  UNL1        0.2232
     11 C         142.6109  139.8040  165.6139 C.3     1  UNL1        0.1062
     12 N         141.4396  143.5914  162.0585 N.pl3   1  UNL1       -0.2769
     13 C         142.8522  143.2634  162.4420 C.3     1  UNL1        0.0950
     14 C         143.1277  142.4831  163.6931 C.3     1  UNL1        0.0375
     15 C         141.9907  142.0307  164.5606 C.3     1  UNL1        0.0613
     16 C         140.5780  142.3587  164.1770 C.3     1  UNL1        0.0375
     17 C         140.3026  143.1390  162.9259 C.3     1  UNL1        0.0950
     18 N         142.1128  146.2215  157.5297 N.pl3   1  UNL1       -0.3278
     19 C         141.4735  145.5806  158.7258 C.ar    1  UNL1        0.2099
     20 N         142.1888  144.8436  159.8188 N.ar    1  UNL1       -0.1804
     21 C         141.1640  144.3717  160.8074 C.ar    1  UNL1        0.2395
     22 N         139.8153  144.8172  160.3252 N.ar    1  UNL1       -0.1349
     23 N         140.0066  145.5644  159.0386 N.ar    1  UNL1       -0.2453
     24 H         143.0892  146.1786  157.4113 H       1  UNL1        0.1451
     25 H         141.5560  146.6850  156.8631 H       1  UNL1        0.1451
     26 H         139.2944  145.9724  158.4951 H       1  UNL1        0.1919
     27 C         142.6345  139.3292  164.1912 C.3     1  UNL1        0.0461
     28 C         141.3532  138.9689  163.4995 C.ar    1  UNL1       -0.0207
     29 C         141.1429  139.3503  162.0641 C.ar    1  UNL1       -0.0034
     30 C         139.8617  138.9900  161.3723 C.ar    1  UNL1        0.0111
     31 C         138.7907  138.2483  162.1159 C.ar    1  UNL1        0.0577
     32 CL        137.5094  137.8881  161.4241 Cl      1  UNL1       -0.0822
     33 C         139.0009  137.8670  163.5513 C.ar    1  UNL1        0.0111
     34 C         140.2822  138.2272  164.2431 C.ar    1  UNL1       -0.0034
@<TRIPOS>BOND
     1    18    19    1
     2    19    20   ar
     3    20    21   ar
     4    21    12    1
     5    12    13    1
     6    13    14    1
     7    14    15    1
     8    15     1    1
     9     1     2    1
    10     2     3    1
    11     3     4   ar
    12     4     5   ar
    13     5     6   ar
    14     6     7   ar
    15     7     8   ar
    16     8     9    1
    17     9    10    1
    18    10    11    1
    19    11    27    1
    20    27    28    1
    21    28    29   ar
    22    29    30   ar
    23    30    31   ar
    24    31    32    1
    25    31    33   ar
    26    33    34   ar
    27    15    16    1
    28    16    17    1
    29    21    22   ar
    30    22    23   ar
    31    23    19   ar
    32    17    12    1
    33    11     1    1
    34    34    28   ar
    35     8     3   ar
    36    18    24    1
    37    18    25    1
    38    23    26    1
@<TRIPOS>MOLECULE
*****
 34 38 0 0 0
SMALL
GASTEIGER

@<TRIPOS>ATOM
      1 N         139.7352  143.3329  160.4886 N.3     1  UNL1       -0.2678
      2 C         139.0219  142.8454  159.2624 C.3     1  UNL1        0.1039
      3 C         139.0681  143.4016  157.8701 C.ar    1  UNL1        0.0471
      4 C         138.2014  142.6113  156.9352 C.ar    1  UNL1        0.0033
      5 C         138.1056  143.0023  155.4902 C.ar    1  UNL1        0.0206
      6 C         138.8766  144.1836  154.9802 C.ar    1  UNL1        0.1020
      7 N         139.7433  144.9739  155.9152 N.ar    1  UNL1       -0.2104
      8 C         139.8390  144.5829  157.3601 C.ar    1  UNL1        0.2220
      9 O         140.7542  145.4997  158.1165 O.3     1  UNL1       -0.4589
     10 C         141.1244  145.4617  159.5695 C.3     1  UNL1        0.2232
     11 C         140.6709  144.4973  160.6252 C.3     1  UNL1        0.1062
     12 N         138.9663  140.9935  164.2549 N.pl3   1  UNL1       -0.2769
     13 C         139.9956  140.5173  163.2731 C.3     1  UNL1        0.0950
     14 C         140.2519  141.2971  162.0177 C.3     1  UNL1        0.0375
     15 C         139.4789  142.5531  161.7440 C.3     1  UNL1        0.0613
     16 C         138.4495  143.0293  162.7257 C.3     1  UNL1        0.0375
     17 C         138.1933  142.2494  163.9812 C.3     1  UNL1        0.0950
     18 N         136.9680  137.5099  167.6831 N.pl3   1  UNL1       -0.3278
     19 C         137.7915  138.6124  167.0861 C.ar    1  UNL1        0.2099
     20 N         137.7113  139.1062  165.6720 N.ar    1  UNL1       -0.1804
     21 C         138.7100  140.2136  165.5103 C.ar    1  UNL1        0.2395
     22 N         139.4074  140.4043  166.8246 N.ar    1  UNL1       -0.1349
     23 N         138.8397  139.4147  167.7985 N.ar    1  UNL1       -0.2453
     24 H         136.3013  137.0397  167.1319 H       1  UNL1        0.1451
     25 H         137.0941  137.2565  168.6260 H       1  UNL1        0.1451
     26 H         139.1080  139.3101  168.7399 H       1  UNL1        0.1919
     27 C         141.2266  144.7279  161.9993 C.3     1  UNL1        0.0461
     28 C         142.4340  143.9650  162.4577 C.ar    1  UNL1       -0.0207
     29 C         143.3677  143.3626  161.4501 C.ar    1  UNL1       -0.0034
     30 C         144.5751  142.5997  161.9086 C.ar    1  UNL1        0.0111
     31 C         144.8488  142.4392  163.3746 C.ar    1  UNL1        0.0577
     32 CL        146.0563  141.6763  163.8331 Cl      1  UNL1       -0.0822
     33 C         143.9151  143.0416  164.3822 C.ar    1  UNL1        0.0111
     34 C         142.7077  143.8045  163.9238 C.ar    1  UNL1       -0.0034
@<TRIPOS>BOND
     1    18    19    1
     2    19    20   ar
     3    20    21   ar
     4    21    12    1
     5    12    13    1
     6    13    14    1
     7    14    15    1
     8    15     1    1
     9     1     2    1
    10     2     3    1
    11     3     4   ar
    12     4     5   ar
    13     5     6   ar
    14     6     7   ar
    15     7     8   ar
    16     8     9    1
    17     9    10    1
    18    10    11    1
    19    11    27    1
    20    27    28    1
    21    28    29   ar
    22    29    30   ar
    23    30    31   ar
    24    31    32    1
    25    31    33   ar
    26    33    34   ar
    27    15    16    1
    28    16    17    1
    29    21    22   ar
    30    22    23   ar
    31    23    19   ar
    32    17    12    1
    33    11     1    1
    34    34    28   ar
    35     8     3   ar
    36    18    24    1
    37    18    25    1
    38    23    26    1
@<TRIPOS>MOLECULE
*****
 34 38 0 0 0
SMALL
GASTEIGER

@<TRIPOS>ATOM
      1 N         141.9518  139.2610  161.7381 N.3     1  UNL1       -0.2678
      2 C         140.9178  138.8772  160.7215 C.3     1  UNL1        0.1039
      3 C         141.0916  138.6562  159.2481 C.ar    1  UNL1        0.0471
      4 C         139.7949  138.2825  158.5932 C.ar    1  UNL1        0.0033
      5 C         139.7490  138.0171  157.1176 C.ar    1  UNL1        0.0206
      6 C         140.9999  138.1253  156.2969 C.ar    1  UNL1        0.1020
      7 N         142.2966  138.4989  156.9517 N.ar    1  UNL1       -0.2104
      8 C         142.3425  138.7643  158.4273 C.ar    1  UNL1        0.2220
      9 O         143.7284  139.1203  158.8773 O.3     1  UNL1       -0.4589
     10 C         144.2059  139.4559  160.2591 C.3     1  UNL1        0.2232
     11 C         143.4152  139.5185  161.5323 C.3     1  UNL1        0.1062
     12 N         140.4678  139.6974  165.9639 N.pl3   1  UNL1       -0.2769
     13 C         140.1530  140.7530  164.9456 C.3     1  UNL1        0.0950
     14 C         140.6477  140.6075  163.5370 C.3     1  UNL1        0.0375
     15 C         141.4572  139.4065  163.1466 C.3     1  UNL1        0.0613
     16 C         141.7720  138.3509  164.1649 C.3     1  UNL1        0.0375
     17 C         141.2773  138.4964  165.5735 C.3     1  UNL1        0.0950
     18 N         140.1933  140.9520  171.0855 N.pl3   1  UNL1       -0.3278
     19 C         139.8470  140.4196  169.7266 C.ar    1  UNL1        0.2099
     20 N         140.7099  140.4992  168.5023 N.ar    1  UNL1       -0.1804
     21 C         139.9732  139.8429  167.3724 C.ar    1  UNL1        0.2395
     22 N         138.6549  139.3576  167.8985 N.ar    1  UNL1       -0.1349
     23 N         138.5769  139.7140  169.3535 N.ar    1  UNL1       -0.2453
     24 H         141.0563  141.4025  171.2324 H       1  UNL1        0.1451
     25 H         139.5577  140.8508  171.8305 H       1  UNL1        0.1451
     26 H         137.8243  139.5191  169.9575 H       1  UNL1        0.1919
     27 C         144.1903  139.8875  162.7623 C.3     1  UNL1        0.0461
     28 C         144.1651  141.2989  163.2695 C.ar    1  UNL1       -0.0207
     29 C         144.2110  142.4444  162.3021 C.ar    1  UNL1       -0.0034
     30 C         144.1857  143.8559  162.8092 C.ar    1  UNL1        0.0111
     31 C         144.1145  144.1218  164.2838 C.ar    1  UNL1        0.0577
     32 CL        144.0892  145.5333  164.7909 Cl      1  UNL1       -0.0822
     33 C         144.0686  142.9764  165.2511 C.ar    1  UNL1        0.0111
     34 C         144.0938  141.5649  164.7440 C.ar    1  UNL1       -0.0034
@<TRIPOS>BOND
     1    18    19    1
     2    19    20   ar
     3    20    21   ar
     4    21    12    1
     5    12    13    1
     6    13    14    1
     7    14    15    1
     8    15     1    1
     9     1     2    1
    10     2     3    1
    11     3     4   ar
    12     4     5   ar
    13     5     6   ar
    14     6     7   ar
    15     7     8   ar
    16     8     9    1
    17     9    10    1
    18    10    11    1
    19    11    27    1
    20    27    28    1
    21    28    29   ar
    22    29    30   ar
    23    30    31   ar
    24    31    32    1
    25    31    33   ar
    26    33    34   ar
    27    15    16    1
    28    16    17    1
    29    21    22   ar
    30    22    23   ar
    31    23    19   ar
    32    17    12    1
    33    11     1    1
    34    34    28   ar
    35     8     3   ar
    36    18    24    1
    37    18    25    1
    38    23    26    1
@<TRIPOS>MOLECULE
*****
 34 38 0 0 0
SMALL
GASTEIGER

@<TRIPOS>ATOM
      1 N         142.5493  140.6483  162.0159 N.3     1  UNL1       -0.2678
      2 C         142.5424  139.4218  161.1524 C.3     1  UNL1        0.1039
      3 C         142.6853  139.3262  159.6622 C.ar    1  UNL1        0.0471
      4 C         142.6232  137.9019  159.1960 C.ar    1  UNL1        0.0033
      5 C         142.7461  137.5850  157.7351 C.ar    1  UNL1        0.0206
      6 C         142.9313  138.6924  156.7404 C.ar    1  UNL1        0.1020
      7 N         142.9934  140.1167  157.2066 N.ar    1  UNL1       -0.2104
      8 C         142.8704  140.4336  158.6675 C.ar    1  UNL1        0.2220
      9 O         142.9583  141.9100  158.9173 O.3     1  UNL1       -0.4589
     10 C         142.8829  142.6438  160.2234 C.3     1  UNL1        0.2232
     11 C         142.7008  142.0822  161.6024 C.3     1  UNL1        0.1062
     12 N         142.0494  139.9314  166.4301 N.pl3   1  UNL1       -0.2769
     13 C         143.3990  140.2780  165.8747 C.3     1  UNL1        0.0950
     14 C         143.5656  140.5170  164.4033 C.3     1  UNL1        0.0375
     15 C         142.3827  140.4093  163.4873 C.3     1  UNL1        0.0613
     16 C         141.0330  140.0627  164.0427 C.3     1  UNL1        0.0375
     17 C         140.8665  139.8237  165.5141 C.3     1  UNL1        0.0950
     18 N         139.9685  139.7117  171.2780 N.pl3   1  UNL1       -0.3278
     19 C         140.9263  139.5914  170.1299 C.ar    1  UNL1        0.2099
     20 N         140.6521  139.9836  168.7083 N.ar    1  UNL1       -0.1804
     21 C         141.8827  139.6924  167.9015 C.ar    1  UNL1        0.2395
     22 N         142.9175  139.1203  168.8246 N.ar    1  UNL1       -0.1349
     23 N         142.3263  139.0579  170.2018 N.ar    1  UNL1       -0.2453
     24 H         139.0661  140.0763  171.1302 H       1  UNL1        0.1451
     25 H         140.2424  139.4260  172.1795 H       1  UNL1        0.1451
     26 H         142.7780  138.7251  171.0109 H       1  UNL1        0.1919
     27 C         142.6657  143.0876  162.7151 C.3     1  UNL1        0.0461
     28 C         141.3551  143.4799  163.3303 C.ar    1  UNL1       -0.0207
     29 C         140.1808  143.7995  162.4535 C.ar    1  UNL1       -0.0034
     30 C         138.8702  144.1918  163.0687 C.ar    1  UNL1        0.0111
     31 C         138.7340  144.2645  164.5607 C.ar    1  UNL1        0.0577
     32 CL        137.4233  144.6569  165.1759 Cl      1  UNL1       -0.0822
     33 C         139.9082  143.9449  165.4375 C.ar    1  UNL1        0.0111
     34 C         141.2189  143.5526  164.8223 C.ar    1  UNL1       -0.0034
@<TRIPOS>BOND
     1    18    19    1
     2    19    20   ar
     3    20    21   ar
     4    21    12    1
     5    12    13    1
     6    13    14    1
     7    14    15    1
     8    15     1    1
     9     1     2    1
    10     2     3    1
    11     3     4   ar
    12     4     5   ar
    13     5     6   ar
    14     6     7   ar
    15     7     8   ar
    16     8     9    1
    17     9    10    1
    18    10    11    1
    19    11    27    1
    20    27    28    1
    21    28    29   ar
    22    29    30   ar
    23    30    31   ar
    24    31    32    1
    25    31    33   ar
    26    33    34   ar
    27    15    16    1
    28    16    17    1
    29    21    22   ar
    30    22    23   ar
    31    23    19   ar
    32    17    12    1
    33    11     1    1
    34    34    28   ar
    35     8     3   ar
    36    18    24    1
    37    18    25    1
    38    23    26    1
@<TRIPOS>MOLECULE
*****
 34 38 0 0 0
SMALL
GASTEIGER

@<TRIPOS>ATOM
      1 N         139.8211  139.3302  160.9215 N.3     1  UNL1       -0.2678
      2 C         138.7544  139.9721  160.0849 C.3     1  UNL1        0.1039
      3 C         138.6495  140.0350  158.5898 C.ar    1  UNL1        0.0471
      4 C         137.4189  140.7757  158.1575 C.ar    1  UNL1        0.0033
      5 C         137.1243  140.9527  156.6974 C.ar    1  UNL1        0.0206
      6 C         138.0603  140.3891  155.6697 C.ar    1  UNL1        0.1020
      7 N         139.2909  139.6484  156.1021 N.ar    1  UNL1       -0.2104
      8 C         139.5855  139.4714  157.5621 C.ar    1  UNL1        0.2220
      9 O         140.8575  138.7056  157.7757 O.3     1  UNL1       -0.4589
     10 C         141.5078  138.3144  159.0695 C.3     1  UNL1        0.2232
     11 C         141.0465  138.5924  160.4695 C.3     1  UNL1        0.1062
     12 N         139.2729  139.6611  165.3756 N.pl3   1  UNL1       -0.2769
     13 C         139.8731  140.8009  164.6071 C.3     1  UNL1        0.0950
     14 C         140.0558  140.6906  163.1223 C.3     1  UNL1        0.0375
     15 C         139.6384  139.4405  162.4061 C.3     1  UNL1        0.0613
     16 C         139.0382  138.3006  163.1747 C.3     1  UNL1        0.0375
     17 C         138.8554  138.4110  164.6594 C.3     1  UNL1        0.0950
     18 N         139.8483  141.1480  170.4093 N.pl3   1  UNL1       -0.3278
     19 C         139.3546  140.4548  169.1741 C.ar    1  UNL1        0.2099
     20 N         139.8656  140.6674  167.7800 N.ar    1  UNL1       -0.1804
     21 C         139.0901  139.7714  166.8603 C.ar    1  UNL1        0.2395
     22 N         138.0998  139.0050  167.6861 N.ar    1  UNL1       -0.1349
     23 N         138.2632  139.4274  169.1161 N.ar    1  UNL1       -0.2453
     24 H         140.5732  141.8110  170.3453 H       1  UNL1        0.1451
     25 H         139.4473  140.9398  171.2841 H       1  UNL1        0.1451
     26 H         137.7451  139.0897  169.8821 H       1  UNL1        0.1919
     27 C         141.9271  138.0625  161.5621 C.3     1  UNL1        0.0461
     28 C         142.9632  138.9492  162.1868 C.ar    1  UNL1       -0.0207
     29 C         143.5768  140.0623  161.3900 C.ar    1  UNL1       -0.0034
     30 C         144.6129  140.9490  162.0146 C.ar    1  UNL1        0.0111
     31 C         145.0355  140.7227  163.4360 C.ar    1  UNL1        0.0577
     32 CL        146.0717  141.6095  164.0606 Cl      1  UNL1       -0.0822
     33 C         144.4220  139.6098  164.2327 C.ar    1  UNL1        0.0111
     34 C         143.3858  138.7230  163.6081 C.ar    1  UNL1       -0.0034
@<TRIPOS>BOND
     1    18    19    1
     2    19    20   ar
     3    20    21   ar
     4    21    12    1
     5    12    13    1
     6    13    14    1
     7    14    15    1
     8    15     1    1
     9     1     2    1
    10     2     3    1
    11     3     4   ar
    12     4     5   ar
    13     5     6   ar
    14     6     7   ar
    15     7     8   ar
    16     8     9    1
    17     9    10    1
    18    10    11    1
    19    11    27    1
    20    27    28    1
    21    28    29   ar
    22    29    30   ar
    23    30    31   ar
    24    31    32    1
    25    31    33   ar
    26    33    34   ar
    27    15    16    1
    28    16    17    1
    29    21    22   ar
    30    22    23   ar
    31    23    19   ar
    32    17    12    1
    33    11     1    1
    34    34    28   ar
    35     8     3   ar
    36    18    24    1
    37    18    25    1
    38    23    26    1
@<TRIPOS>MOLECULE
*****
 34 38 0 0 0
SMALL
GASTEIGER

@<TRIPOS>ATOM
      1 N         142.4997  141.0326  164.5328 N.3     1  UNL1       -0.2678
      2 C         142.6760  141.8303  165.7907 C.3     1  UNL1        0.1039
      3 C         142.8171  141.3358  167.1999 C.ar    1  UNL1        0.0471
      4 C         142.9739  142.4721  168.1663 C.ar    1  UNL1        0.0033
      5 C         143.1303  142.1940  169.6320 C.ar    1  UNL1        0.0206
      6 C         143.1298  140.7795  170.1311 C.ar    1  UNL1        0.1020
      7 N         142.9731  139.6431  169.1646 N.ar    1  UNL1       -0.2104
      8 C         142.8167  139.9213  167.6990 C.ar    1  UNL1        0.2220
      9 O         142.6751  138.6520  166.9123 O.3     1  UNL1       -0.4589
     10 C         142.4989  138.4836  165.4323 C.3     1  UNL1        0.2232
     11 C         142.4208  139.5431  164.3733 C.3     1  UNL1        0.1062
     12 N         142.1625  143.4235  160.7355 N.pl3   1  UNL1       -0.2769
     13 C         143.4441  142.7175  161.0659 C.3     1  UNL1        0.0950
     14 C         143.5564  141.9205  162.3318 C.3     1  UNL1        0.0375
     15 C         142.3873  141.8295  163.2670 C.3     1  UNL1        0.0613
     16 C         141.1057  142.5355  162.9366 C.3     1  UNL1        0.0375
     17 C         140.9933  143.3325  161.6708 C.3     1  UNL1        0.0950
     18 N         140.3745  146.7217  157.0199 N.pl3   1  UNL1       -0.3278
     19 C         141.2282  145.7365  157.7619 C.ar    1  UNL1        0.2099
     20 N         140.9341  145.1575  159.1139 N.ar    1  UNL1       -0.1804
     21 C         142.0501  144.2204  159.4697 C.ar    1  UNL1        0.2395
     22 N         143.0340  144.2203  158.3375 N.ar    1  UNL1       -0.1349
     23 N         142.5260  145.1573  157.2819 N.ar    1  UNL1       -0.2453
     24 H         139.5351  147.0450  157.4200 H       1  UNL1        0.1451
     25 H         140.6535  147.0449  156.1329 H       1  UNL1        0.1451
     26 H         142.9670  145.3571  156.4247 H       1  UNL1        0.1919
     27 C         142.2401  139.0476  162.9691 C.3     1  UNL1        0.0461
     28 C         140.9139  139.1999  162.2849 C.ar    1  UNL1       -0.0207
     29 C         139.6439  139.0536  163.0697 C.ar    1  UNL1       -0.0034
     30 C         138.3178  139.2059  162.3855 C.ar    1  UNL1        0.0111
     31 C         138.2615  139.5045  160.9166 C.ar    1  UNL1        0.0577
     32 CL        136.9353  139.6568  160.2325 Cl      1  UNL1       -0.0822
     33 C         139.5314  139.6508  160.1319 C.ar    1  UNL1        0.0111
     34 C         140.8577  139.4985  160.8160 C.ar    1  UNL1       -0.0034
@<TRIPOS>BOND
     1    18    19    1
     2    19    20   ar
     3    20    21   ar
     4    21    12    1
     5    12    13    1
     6    13    14    1
     7    14    15    1
     8    15     1    1
     9     1     2    1
    10     2     3    1
    11     3     4   ar
    12     4     5   ar
    13     5     6   ar
    14     6     7   ar
    15     7     8   ar
    16     8     9    1
    17     9    10    1
    18    10    11    1
    19    11    27    1
    20    27    28    1
    21    28    29   ar
    22    29    30   ar
    23    30    31   ar
    24    31    32    1
    25    31    33   ar
    26    33    34   ar
    27    15    16    1
    28    16    17    1
    29    21    22   ar
    30    22    23   ar
    31    23    19   ar
    32    17    12    1
    33    11     1    1
    34    34    28   ar
    35     8     3   ar
    36    18    24    1
    37    18    25    1
    38    23    26    1
@<TRIPOS>MOLECULE
*****
 34 38 0 0 0
SMALL
GASTEIGER

@<TRIPOS>ATOM
      1 N         140.2895  139.1330  161.4063 N.3     1  UNL1       -0.2678
      2 C         141.3913  138.7007  160.4848 C.3     1  UNL1        0.1039
      3 C         141.3553  138.5421  158.9936 C.ar    1  UNL1        0.0471
      4 C         142.6808  138.0872  158.4588 C.ar    1  UNL1        0.0033
      5 C         142.8595  137.8668  156.9859 C.ar    1  UNL1        0.0206
      6 C         141.7127  138.1014  156.0479 C.ar    1  UNL1        0.1020
      7 N         140.3873  138.5563  156.5827 N.ar    1  UNL1       -0.2104
      8 C         140.2086  138.7767  158.0556 C.ar    1  UNL1        0.2220
      9 O         138.8146  139.2278  158.3771 O.3     1  UNL1       -0.4589
     10 C         138.2230  139.5557  159.7160 C.3     1  UNL1        0.2232
     11 C         138.8795  139.5135  161.0641 C.3     1  UNL1        0.1062
     12 N         141.3548  139.3121  165.7747 N.pl3   1  UNL1       -0.2769
     13 C         141.8900  140.3463  164.8291 C.3     1  UNL1        0.0950
     14 C         141.5349  140.2866  163.3730 C.3     1  UNL1        0.0375
     15 C         140.6446  139.1927  162.8624 C.3     1  UNL1        0.0613
     16 C         140.1093  138.1585  163.8079 C.3     1  UNL1        0.0375
     17 C         140.4645  138.2182  165.2641 C.3     1  UNL1        0.0950
     18 N         141.0443  140.0565  170.9929 N.pl3   1  UNL1       -0.3278
     19 C         141.5672  139.7140  169.6293 C.ar    1  UNL1        0.2099
     20 N         140.8036  139.8119  168.3421 N.ar    1  UNL1       -0.1804
     21 C         141.7099  139.3718  167.2308 C.ar    1  UNL1        0.2395
     22 N         143.0337  139.0018  167.8313 N.ar    1  UNL1       -0.1349
     23 N         142.9455  139.2133  169.3138 N.ar    1  UNL1       -0.2453
     24 H         140.1203  140.3792  171.0990 H       1  UNL1        0.1451
     25 H         141.6252  139.9587  171.7817 H       1  UNL1        0.1451
     26 H         143.6658  139.0519  169.9652 H       1  UNL1        0.1919
     27 C         138.0110  139.9034  162.2233 C.3     1  UNL1        0.0461
     28 C         138.2196  141.2224  162.9064 C.ar    1  UNL1       -0.0207
     29 C         138.4827  142.4550  162.0930 C.ar    1  UNL1       -0.0034
     30 C         138.6913  143.7740  162.7761 C.ar    1  UNL1        0.0111
     31 C         138.6367  143.8605  164.2726 C.ar    1  UNL1        0.0577
     32 CL        138.8453  145.1796  164.9557 Cl      1  UNL1       -0.0822
     33 C         138.3736  142.6280  165.0860 C.ar    1  UNL1        0.0111
     34 C         138.1650  141.3089  164.4029 C.ar    1  UNL1       -0.0034
@<TRIPOS>BOND
     1    18    19    1
     2    19    20   ar
     3    20    21   ar
     4    21    12    1
     5    12    13    1
     6    13    14    1
     7    14    15    1
     8    15     1    1
     9     1     2    1
    10     2     3    1
    11     3     4   ar
    12     4     5   ar
    13     5     6   ar
    14     6     7   ar
    15     7     8   ar
    16     8     9    1
    17     9    10    1
    18    10    11    1
    19    11    27    1
    20    27    28    1
    21    28    29   ar
    22    29    30   ar
    23    30    31   ar
    24    31    32    1
    25    31    33   ar
    26    33    34   ar
    27    15    16    1
    28    16    17    1
    29    21    22   ar
    30    22    23   ar
    31    23    19   ar
    32    17    12    1
    33    11     1    1
    34    34    28   ar
    35     8     3   ar
    36    18    24    1
    37    18    25    1
    38    23    26    1
@<TRIPOS>MOLECULE
*****
 34 38 0 0 0
SMALL
GASTEIGER

@<TRIPOS>ATOM
      1 N         141.7710  141.9925  161.8496 N.3     1  UNL1       -0.2678
      2 C         141.4245  143.3564  161.3302 C.3     1  UNL1        0.1039
      3 C         141.0767  143.7631  159.9289 C.ar    1  UNL1        0.0471
      4 C         140.7954  145.2337  159.8389 C.ar    1  UNL1        0.0033
      5 C         140.4268  145.8474  158.5208 C.ar    1  UNL1        0.0206
      6 C         140.3395  144.9905  157.2927 C.ar    1  UNL1        0.1020
      7 N         140.6208  143.5199  157.3827 N.ar    1  UNL1       -0.2104
      8 C         140.9894  142.9062  158.7008 C.ar    1  UNL1        0.2220
      9 O         141.2284  141.4310  158.5708 O.3     1  UNL1       -0.4589
     10 C         141.6137  140.4484  159.6366 C.3     1  UNL1        0.2232
     11 C         141.8551  140.6983  161.0959 C.3     1  UNL1        0.1062
     12 N         142.6776  141.7513  166.2507 N.pl3   1  UNL1       -0.2769
     13 C         143.7951  141.7047  165.2511 C.3     1  UNL1        0.0950
     14 C         143.4928  141.7851  163.7840 C.3     1  UNL1        0.0375
     15 C         142.0732  141.9121  163.3166 C.3     1  UNL1        0.0613
     16 C         140.9557  141.9587  164.3162 C.3     1  UNL1        0.0375
     17 C         141.2579  141.8783  165.7833 C.3     1  UNL1        0.0950
     18 N         142.9516  140.0285  171.2344 N.pl3   1  UNL1       -0.3278
     19 C         143.1057  140.8790  170.0085 C.ar    1  UNL1        0.2099
     20 N         142.6088  140.5426  168.6338 N.ar    1  UNL1       -0.1804
     21 C         142.9798  141.6709  167.7177 C.ar    1  UNL1        0.2395
     22 N         143.7060  142.7048  168.5262 N.ar    1  UNL1       -0.1349
     23 N         143.7839  142.2154  169.9421 N.ar    1  UNL1       -0.2453
     24 H         142.4882  139.1618  171.1771 H       1  UNL1        0.1451
     25 H         143.3139  140.3371  172.0963 H       1  UNL1        0.1451
     26 H         144.2060  142.6882  170.6954 H       1  UNL1        0.1919
     27 C         142.2304  139.4949  161.9089 C.3     1  UNL1        0.0461
     28 C         141.2397  138.8952  162.8622 C.ar    1  UNL1       -0.0207
     29 C         141.7104  138.2950  164.1538 C.ar    1  UNL1       -0.0034
     30 C         140.7197  137.6953  165.1072 C.ar    1  UNL1        0.0111
     31 C         139.2583  137.6958  164.7689 C.ar    1  UNL1        0.0577
     32 CL        138.2677  137.0960  165.7223 Cl      1  UNL1       -0.0822
     33 C         138.7876  138.2959  163.4774 C.ar    1  UNL1        0.0111
     34 C         139.7783  138.8957  162.5240 C.ar    1  UNL1       -0.0034
@<TRIPOS>BOND
     1    18    19    1
     2    19    20   ar
     3    20    21   ar
     4    21    12    1
     5    12    13    1
     6    13    14    1
     7    14    15    1
     8    15     1    1
     9     1     2    1
    10     2     3    1
    11     3     4   ar
    12     4     5   ar
    13     5     6   ar
    14     6     7   ar
    15     7     8   ar
    16     8     9    1
    17     9    10    1
    18    10    11    1
    19    11    27    1
    20    27    28    1
    21    28    29   ar
    22    29    30   ar
    23    30    31   ar
    24    31    32    1
    25    31    33   ar
    26    33    34   ar
    27    15    16    1
    28    16    17    1
    29    21    22   ar
    30    22    23   ar
    31    23    19   ar
    32    17    12    1
    33    11     1    1
    34    34    28   ar
    35     8     3   ar
    36    18    24    1
    37    18    25    1
    38    23    26    1
