@<TRIPOS>MOLECULE
*****
 42 45 0 0 0
SMALL
GASTEIGER

@<TRIPOS>ATOM
      1 C         140.7235  140.6123  163.0759 C.3     1  UNL1        0.0798
      2 C         140.4342  140.5268  164.5453 C.ar    1  UNL1        0.0374
      3 C         140.6449  141.7255  165.4221 C.ar    1  UNL1        0.0023
      4 C         140.3557  141.6401  166.8915 C.ar    1  UNL1        0.0181
      5 C         140.5664  142.8387  167.7683 C.ar    1  UNL1        0.0082
      6 C         140.2771  142.7532  169.2377 C.ar    1  UNL1        0.0347
      7 BR        140.4878  143.9519  170.1145 Br      1  UNL1       -0.0490
      8 C         139.7772  141.4691  169.8302 C.ar    1  UNL1        0.0082
      9 C         139.5664  140.2705  168.9534 C.ar    1  UNL1        0.0197
     10 C         139.8557  140.3559  167.4841 C.ar    1  UNL1        0.0844
     11 N         139.6450  139.1573  166.6072 N.ar    1  UNL1       -0.2119
     12 C         139.9342  139.2427  165.1379 C.ar    1  UNL1        0.2211
     13 O         139.7235  138.0440  164.2610 O.3     1  UNL1       -0.4563
     14 C         140.7519  136.9528  164.2227 C.3     1  UNL1        0.2542
     15 C         141.8667  139.8377  162.4903 C.ar    1  UNL1        0.0115
     16 C         143.1935  139.8148  163.1897 C.ar    1  UNL1       -0.0017
     17 C         144.3368  139.0403  162.6042 C.ar    1  UNL1       -0.0005
     18 C         144.1533  138.2886  161.3190 C.ar    1  UNL1       -0.0021
     19 C         142.8266  138.3115  160.6196 C.ar    1  UNL1        0.0053
     20 C         142.6431  137.5599  159.3346 C.3     1  UNL1        0.0334
     21 C         141.6833  139.0861  161.2053 C.ar    1  UNL1        0.1325
     22 F         140.3565  139.1090  160.5059 F       1  UNL1       -0.2048
     23 C         139.8694  141.4722  162.1922 C.3     1  UNL1        0.1162
     24 O         138.6748  140.6286  162.5258 O.3     1  UNL1       -0.3820
     25 H         137.8966  140.9711  162.0589 H       1  UNL1        0.2107
     26 C         142.7642  143.2191  160.1141 C.ar    1  UNL1        0.2271
     27 C         141.5696  142.3755  160.4477 C.ar    1  UNL1        0.0559
     28 C         141.0640  142.3158  161.8586 C.ar    1  UNL1        0.0117
     29 C         141.7529  143.0998  162.9359 C.ar    1  UNL1        0.0559
     30 C         142.9475  143.9434  162.6023 C.ar    1  UNL1        0.2271
     31 N         143.4532  144.0030  161.1914 N.ar    1  UNL1       -0.1767
     32 O         143.2699  143.2787  158.7031 O.3     1  UNL1       -0.4602
     33 C         144.1943  140.8880  158.2789 C.3     1  UNL1        0.0512
     34 C         144.3856  142.3757  158.2675 C.3     1  UNL1        0.2072
     35 O         143.6365  144.7274  163.6798 O.3     1  UNL1       -0.4602
     36 C         144.1863  144.0233  164.8847 C.3     1  UNL1        0.2072
     37 C         144.8812  142.7030  164.7298 C.3     1  UNL1        0.0512
     38 C         139.0153  142.3322  161.3084 C.3     1  UNL1        0.0491
     39 C         137.9358  143.1840  161.9076 C.3     1  UNL1        0.0750
     40 N         138.2821  144.2215  162.9341 N.3     1  UNL1       -0.2702
     41 C         137.8641  144.0324  164.3622 C.3     1  UNL1        0.0897
     42 C         139.0463  145.4481  162.5325 C.3     1  UNL1        0.0897
@<TRIPOS>BOND
     1    33    34    1
     2    34    32    1
     3    32    26    1
     4    26    27   ar
     5    27    28   ar
     6    28    23    1
     7    23    24    1
     8    23    38    1
     9    38    39    1
    10    39    40    1
    11    40    41    1
    12    40    42    1
    13    23     1    1
    14     1     2    1
    15     2     3   ar
    16     3     4   ar
    17     4     5   ar
    18     5     6   ar
    19     6     7    1
    20     6     8   ar
    21     8     9   ar
    22     9    10   ar
    23    10    11   ar
    24    11    12   ar
    25    12    13    1
    26    13    14    1
    27     1    15    1
    28    15    16   ar
    29    16    17   ar
    30    17    18   ar
    31    18    19   ar
    32    19    20    1
    33    19    21   ar
    34    21    22    1
    35    28    29   ar
    36    29    30   ar
    37    30    35    1
    38    35    36    1
    39    36    37    1
    40    30    31   ar
    41    31    26   ar
    42    12     2   ar
    43    21    15   ar
    44    10     4   ar
    45    24    25    1
@<TRIPOS>MOLECULE
*****
 42 45 0 0 0
SMALL
GASTEIGER

@<TRIPOS>ATOM
      1 C         141.3831  141.0352  162.5984 C.3     1  UNL1        0.0798
      2 C         141.4061  140.7507  164.0710 C.ar    1  UNL1        0.0374
      3 C         141.0461  141.8296  165.0490 C.ar    1  UNL1        0.0023
      4 C         141.0691  141.5452  166.5216 C.ar    1  UNL1        0.0181
      5 C         140.7091  142.6240  167.4996 C.ar    1  UNL1        0.0082
      6 C         140.7321  142.3396  168.9721 C.ar    1  UNL1        0.0347
      7 BR        140.3721  143.4185  169.9502 Br      1  UNL1       -0.0490
      8 C         141.1151  140.9763  169.4668 C.ar    1  UNL1        0.0082
      9 C         141.4751  139.8974  168.4888 C.ar    1  UNL1        0.0197
     10 C         141.4521  140.1819  167.0163 C.ar    1  UNL1        0.0844
     11 N         141.8121  139.1030  166.0382 N.ar    1  UNL1       -0.2119
     12 C         141.7891  139.3874  164.5657 C.ar    1  UNL1        0.2211
     13 O         142.1491  138.3085  163.5876 O.3     1  UNL1       -0.4563
     14 C         141.1618  137.2251  163.2691 C.3     1  UNL1        0.2542
     15 C         140.2664  140.5041  161.7493 C.ar    1  UNL1        0.0115
     16 C         138.8409  140.7659  162.1355 C.ar    1  UNL1       -0.0017
     17 C         137.7242  140.2348  161.2865 C.ar    1  UNL1       -0.0005
     18 C         138.0331  139.4420  160.0511 C.ar    1  UNL1       -0.0021
     19 C         139.4586  139.1802  159.6648 C.ar    1  UNL1        0.0053
     20 C         139.7676  138.3875  158.4295 C.3     1  UNL1        0.0334
     21 C         140.5754  139.7113  160.5140 C.ar    1  UNL1        0.1325
     22 F         142.0010  139.4496  160.1278 F       1  UNL1       -0.2048
     23 C         142.4769  141.8506  161.9749 C.3     1  UNL1        0.1162
     24 O         143.4754  140.7943  162.3450 O.3     1  UNL1       -0.3820
     25 H         144.3575  141.0638  162.0447 H       1  UNL1        0.2107
     26 C         139.7387  144.7040  162.3080 C.ar    1  UNL1        0.2271
     27 C         140.7373  143.6476  162.6781 C.ar    1  UNL1        0.0559
     28 C         141.4783  142.9070  161.6047 C.ar    1  UNL1        0.0117
     29 C         141.2207  143.2226  160.1611 C.ar    1  UNL1        0.0559
     30 C         140.2221  144.2789  159.7910 C.ar    1  UNL1        0.2271
     31 N         139.4811  145.0196  160.8644 N.ar    1  UNL1       -0.1767
     32 O         138.9977  145.4446  163.3815 O.3     1  UNL1       -0.4602
     33 C         137.7681  143.4841  164.5622 C.3     1  UNL1        0.0512
     34 C         138.5922  144.7349  164.6393 C.3     1  UNL1        0.2072
     35 O         139.9645  144.5945  158.3473 O.3     1  UNL1       -0.4602
     36 C         140.5887  145.8065  157.7216 C.3     1  UNL1        0.2072
     37 C         142.0746  145.8686  157.5262 C.3     1  UNL1        0.0512
     38 C         143.5706  142.6661  161.3514 C.3     1  UNL1        0.0491
     39 C         144.6594  143.2405  162.2083 C.3     1  UNL1        0.0750
     40 N         144.3467  143.7269  163.5924 N.3     1  UNL1       -0.2702
     41 C         144.6426  142.8569  164.7779 C.3     1  UNL1        0.0897
     42 C         143.7382  145.0834  163.7909 C.3     1  UNL1        0.0897
@<TRIPOS>BOND
     1    33    34    1
     2    34    32    1
     3    32    26    1
     4    26    27   ar
     5    27    28   ar
     6    28    23    1
     7    23    24    1
     8    23    38    1
     9    38    39    1
    10    39    40    1
    11    40    41    1
    12    40    42    1
    13    23     1    1
    14     1     2    1
    15     2     3   ar
    16     3     4   ar
    17     4     5   ar
    18     5     6   ar
    19     6     7    1
    20     6     8   ar
    21     8     9   ar
    22     9    10   ar
    23    10    11   ar
    24    11    12   ar
    25    12    13    1
    26    13    14    1
    27     1    15    1
    28    15    16   ar
    29    16    17   ar
    30    17    18   ar
    31    18    19   ar
    32    19    20    1
    33    19    21   ar
    34    21    22    1
    35    28    29   ar
    36    29    30   ar
    37    30    35    1
    38    35    36    1
    39    36    37    1
    40    30    31   ar
    41    31    26   ar
    42    12     2   ar
    43    21    15   ar
    44    10     4   ar
    45    24    25    1
@<TRIPOS>MOLECULE
*****
 42 45 0 0 0
SMALL
GASTEIGER

@<TRIPOS>ATOM
      1 C         141.8036  140.9629  162.6373 C.3     1  UNL1        0.0798
      2 C         141.6369  140.7215  164.1084 C.ar    1  UNL1        0.0374
      3 C         141.3133  141.8645  165.0241 C.ar    1  UNL1        0.0023
      4 C         141.1465  141.6231  166.4952 C.ar    1  UNL1        0.0181
      5 C         140.8229  142.7662  167.4109 C.ar    1  UNL1        0.0082
      6 C         140.6561  142.5247  168.8819 C.ar    1  UNL1        0.0347
      7 BR        140.3325  143.6678  169.7977 Br      1  UNL1       -0.0490
      8 C         140.8130  141.1401  169.4371 C.ar    1  UNL1        0.0082
      9 C         141.1366  139.9970  168.5214 C.ar    1  UNL1        0.0197
     10 C         141.3033  140.2385  167.0505 C.ar    1  UNL1        0.0844
     11 N         141.6269  139.0954  166.1347 N.ar    1  UNL1       -0.2119
     12 C         141.7937  139.3369  164.6637 C.ar    1  UNL1        0.2211
     13 O         142.1173  138.1938  163.7479 O.3     1  UNL1       -0.4563
     14 C         141.1096  137.1061  163.5209 C.3     1  UNL1        0.2542
     15 C         141.0108  140.1582  161.6506 C.ar    1  UNL1        0.0115
     16 C         141.7144  139.3922  160.5698 C.ar    1  UNL1       -0.0017
     17 C         140.9215  138.5875  159.5830 C.ar    1  UNL1       -0.0005
     18 C         139.4249  138.5487  159.6771 C.ar    1  UNL1       -0.0021
     19 C         138.7213  139.3147  160.7579 C.ar    1  UNL1        0.0053
     20 C         137.2248  139.2760  160.8519 C.3     1  UNL1        0.0334
     21 C         139.5143  140.1195  161.7447 C.ar    1  UNL1        0.1325
     22 F         138.8106  140.8854  162.8255 F       1  UNL1       -0.2048
     23 C         142.7633  142.0091  162.1531 C.3     1  UNL1        0.1162
     24 O         143.8952  141.2735  162.8071 O.3     1  UNL1       -0.3820
     25 H         144.7243  141.7528  162.6528 H       1  UNL1        0.2107
     26 C         140.3995  143.5258  159.3493 C.ar    1  UNL1        0.2271
     27 C         141.5314  142.7902  160.0032 C.ar    1  UNL1        0.0559
     28 C         141.6314  142.7447  161.4992 C.ar    1  UNL1        0.0117
     29 C         140.5996  143.4349  162.3411 C.ar    1  UNL1        0.0559
     30 C         139.4677  144.1705  161.6872 C.ar    1  UNL1        0.2271
     31 N         139.3676  144.2160  160.1912 N.ar    1  UNL1       -0.1767
     32 O         140.2994  143.5713  157.8532 O.3     1  UNL1       -0.4602
     33 C         139.1905  141.3180  157.1878 C.3     1  UNL1        0.0512
     34 C         140.3193  142.2976  157.0612 C.3     1  UNL1        0.2072
     35 O         138.4358  144.8607  162.5292 O.3     1  UNL1       -0.4602
     36 C         137.9793  144.2387  163.8156 C.3     1  UNL1        0.2072
     37 C         138.5490  144.7105  165.1205 C.3     1  UNL1        0.0512
     38 C         143.7230  143.0553  161.6689 C.3     1  UNL1        0.0491
     39 C         144.6051  143.7740  162.6464 C.3     1  UNL1        0.0750
     40 N         144.0456  144.2445  163.9562 N.3     1  UNL1       -0.2702
     41 C         144.5233  143.6316  165.2392 C.3     1  UNL1        0.0897
     42 C         143.0086  145.3279  163.9830 C.3     1  UNL1        0.0897
@<TRIPOS>BOND
     1    33    34    1
     2    34    32    1
     3    32    26    1
     4    26    27   ar
     5    27    28   ar
     6    28    23    1
     7    23    24    1
     8    23    38    1
     9    38    39    1
    10    39    40    1
    11    40    41    1
    12    40    42    1
    13    23     1    1
    14     1     2    1
    15     2     3   ar
    16     3     4   ar
    17     4     5   ar
    18     5     6   ar
    19     6     7    1
    20     6     8   ar
    21     8     9   ar
    22     9    10   ar
    23    10    11   ar
    24    11    12   ar
    25    12    13    1
    26    13    14    1
    27     1    15    1
    28    15    16   ar
    29    16    17   ar
    30    17    18   ar
    31    18    19   ar
    32    19    20    1
    33    19    21   ar
    34    21    22    1
    35    28    29   ar
    36    29    30   ar
    37    30    35    1
    38    35    36    1
    39    36    37    1
    40    30    31   ar
    41    31    26   ar
    42    12     2   ar
    43    21    15   ar
    44    10     4   ar
    45    24    25    1
@<TRIPOS>MOLECULE
*****
 42 45 0 0 0
SMALL
GASTEIGER

@<TRIPOS>ATOM
      1 C         141.5930  142.1245  162.6567 C.3     1  UNL1        0.0798
      2 C         142.0111  142.1822  164.0961 C.ar    1  UNL1        0.0374
      3 C         141.0043  141.9341  165.1800 C.ar    1  UNL1        0.0023
      4 C         141.4224  141.9918  166.6195 C.ar    1  UNL1        0.0181
      5 C         140.4157  141.7438  167.7034 C.ar    1  UNL1        0.0082
      6 C         140.8338  141.8014  169.1428 C.ar    1  UNL1        0.0347
      7 BR        139.8270  141.5534  170.2268 Br      1  UNL1       -0.0490
      8 C         142.2587  142.1070  169.4982 C.ar    1  UNL1        0.0082
      9 C         143.2654  142.3550  168.4143 C.ar    1  UNL1        0.0197
     10 C         142.8473  142.2974  166.9749 C.ar    1  UNL1        0.0844
     11 N         143.8540  142.5454  165.8909 N.ar    1  UNL1       -0.2119
     12 C         143.4359  142.4878  164.4516 C.ar    1  UNL1        0.2211
     13 O         144.4427  142.7358  163.3676 O.3     1  UNL1       -0.4563
     14 C         145.6488  141.8521  163.2477 C.3     1  UNL1        0.2542
     15 C         142.4085  141.3434  161.6695 C.ar    1  UNL1        0.0115
     16 C         142.8711  141.9922  160.3987 C.ar    1  UNL1       -0.0017
     17 C         143.6867  141.2110  159.4115 C.ar    1  UNL1       -0.0005
     18 C         144.0397  139.7809  159.6951 C.ar    1  UNL1       -0.0021
     19 C         143.5771  139.1321  160.9659 C.ar    1  UNL1        0.0053
     20 C         143.9300  137.7021  161.2496 C.3     1  UNL1        0.0334
     21 C         142.7615  139.9134  161.9531 C.ar    1  UNL1        0.1325
     22 F         142.2988  139.2646  163.2240 F       1  UNL1       -0.2048
     23 C         140.3593  142.8481  162.2045 C.3     1  UNL1        0.1162
     24 O         141.0004  144.1588  162.5527 O.3     1  UNL1       -0.3820
     25 H         140.3864  144.8824  162.3521 H       1  UNL1        0.2107
     26 C         138.7451  139.2432  162.5907 C.ar    1  UNL1        0.2271
     27 C         139.3862  140.5539  162.9389 C.ar    1  UNL1        0.0559
     28 C         139.7182  141.5375  161.8563 C.ar    1  UNL1        0.0117
     29 C         139.4091  141.2105  160.4254 C.ar    1  UNL1        0.0559
     30 C         138.7680  139.8999  160.0772 C.ar    1  UNL1        0.2271
     31 N         138.4360  138.9162  161.1598 N.ar    1  UNL1       -0.1767
     32 O         138.4131  138.2596  163.6735 O.3     1  UNL1       -0.4602
     33 C         138.1681  139.0717  166.1292 C.3     1  UNL1        0.0512
     34 C         138.9888  138.4341  165.0476 C.3     1  UNL1        0.2072
     35 O         138.4589  139.5729  158.6462 O.3     1  UNL1       -0.4602
     36 C         139.5729  139.2671  157.6893 C.3     1  UNL1        0.2072
     37 C         140.8080  138.5682  158.1748 C.3     1  UNL1        0.0512
     38 C         139.1256  143.5717  161.7523 C.3     1  UNL1        0.0491
     39 C         138.4115  144.4967  162.6927 C.3     1  UNL1        0.0750
     40 N         138.2251  144.1083  164.1295 N.3     1  UNL1       -0.2702
     41 C         137.4112  142.8980  164.4797 C.3     1  UNL1        0.0897
     42 C         138.8526  144.9301  165.2161 C.3     1  UNL1        0.0897
@<TRIPOS>BOND
     1    33    34    1
     2    34    32    1
     3    32    26    1
     4    26    27   ar
     5    27    28   ar
     6    28    23    1
     7    23    24    1
     8    23    38    1
     9    38    39    1
    10    39    40    1
    11    40    41    1
    12    40    42    1
    13    23     1    1
    14     1     2    1
    15     2     3   ar
    16     3     4   ar
    17     4     5   ar
    18     5     6   ar
    19     6     7    1
    20     6     8   ar
    21     8     9   ar
    22     9    10   ar
    23    10    11   ar
    24    11    12   ar
    25    12    13    1
    26    13    14    1
    27     1    15    1
    28    15    16   ar
    29    16    17   ar
    30    17    18   ar
    31    18    19   ar
    32    19    20    1
    33    19    21   ar
    34    21    22    1
    35    28    29   ar
    36    29    30   ar
    37    30    35    1
    38    35    36    1
    39    36    37    1
    40    30    31   ar
    41    31    26   ar
    42    12     2   ar
    43    21    15   ar
    44    10     4   ar
    45    24    25    1
@<TRIPOS>MOLECULE
*****
 42 45 0 0 0
SMALL
GASTEIGER

@<TRIPOS>ATOM
      1 C         141.5241  141.9516  162.6712 C.3     1  UNL1        0.0798
      2 C         141.9425  142.0340  164.1093 C.ar    1  UNL1        0.0374
      3 C         141.0632  141.4596  165.1803 C.ar    1  UNL1        0.0023
      4 C         141.4816  141.5419  166.6184 C.ar    1  UNL1        0.0181
      5 C         140.6024  140.9676  167.6894 C.ar    1  UNL1        0.0082
      6 C         141.0208  141.0499  169.1275 C.ar    1  UNL1        0.0347
      7 BR        140.1416  140.4755  170.1985 Br      1  UNL1       -0.0490
      8 C         142.3185  141.7066  169.4946 C.ar    1  UNL1        0.0082
      9 C         143.1977  142.2810  168.4236 C.ar    1  UNL1        0.0197
     10 C         142.7793  142.1986  166.9856 C.ar    1  UNL1        0.0844
     11 N         143.6586  142.7730  165.9145 N.ar    1  UNL1       -0.2119
     12 C         143.2401  142.6907  164.4764 C.ar    1  UNL1        0.2211
     13 O         144.1194  143.2651  163.4054 O.3     1  UNL1       -0.4563
     14 C         144.0374  144.7249  163.0706 C.3     1  UNL1        0.2542
     15 C         142.3967  141.2468  161.6754 C.ar    1  UNL1        0.0115
     16 C         142.8656  141.9676  160.4463 C.ar    1  UNL1       -0.0017
     17 C         143.7383  141.2627  159.4505 C.ar    1  UNL1       -0.0005
     18 C         144.1420  139.8370  159.6837 C.ar    1  UNL1       -0.0021
     19 C         143.6730  139.1162  160.9128 C.ar    1  UNL1        0.0053
     20 C         144.0767  137.6905  161.1460 C.3     1  UNL1        0.0334
     21 C         142.8003  139.8211  161.9086 C.ar    1  UNL1        0.1325
     22 F         142.3314  139.1003  163.1376 F       1  UNL1       -0.2048
     23 C         140.2330  142.5742  162.2289 C.3     1  UNL1        0.1162
     24 O         140.7493  143.9259  162.6245 O.3     1  UNL1       -0.3820
     25 H         140.0734  144.5968  162.4401 H       1  UNL1        0.2107
     26 C         139.0226  139.5310  159.9876 C.ar    1  UNL1        0.2271
     27 C         139.5389  140.8826  160.3832 C.ar    1  UNL1        0.0559
     28 C         139.7168  141.2226  161.8333 C.ar    1  UNL1        0.0117
     29 C         139.3784  140.2109  162.8877 C.ar    1  UNL1        0.0559
     30 C         138.8621  138.8592  162.4921 C.ar    1  UNL1        0.2271
     31 N         138.6842  138.5193  161.0420 N.ar    1  UNL1       -0.1767
     32 O         138.8447  139.1911  158.5374 O.3     1  UNL1       -0.4602
     33 C         141.2553  138.5108  157.8472 C.3     1  UNL1        0.0512
     34 C         139.7825  138.2275  157.8725 C.3     1  UNL1        0.2072
     35 O         138.5237  137.8475  163.5466 O.3     1  UNL1       -0.4602
     36 C         139.0688  138.0010  164.9356 C.3     1  UNL1        0.2072
     37 C         138.2203  138.6122  166.0110 C.3     1  UNL1        0.0512
     38 C         138.9420  143.1968  161.7866 C.3     1  UNL1        0.0491
     39 C         138.1997  144.1189  162.7078 C.3     1  UNL1        0.0750
     40 N         138.1491  143.8288  164.1786 N.3     1  UNL1       -0.2702
     41 C         137.5724  142.5336  164.6683 C.3     1  UNL1        0.0897
     42 C         138.6752  144.8340  165.1598 C.3     1  UNL1        0.0897
@<TRIPOS>BOND
     1    33    34    1
     2    34    32    1
     3    32    26    1
     4    26    27   ar
     5    27    28   ar
     6    28    23    1
     7    23    24    1
     8    23    38    1
     9    38    39    1
    10    39    40    1
    11    40    41    1
    12    40    42    1
    13    23     1    1
    14     1     2    1
    15     2     3   ar
    16     3     4   ar
    17     4     5   ar
    18     5     6   ar
    19     6     7    1
    20     6     8   ar
    21     8     9   ar
    22     9    10   ar
    23    10    11   ar
    24    11    12   ar
    25    12    13    1
    26    13    14    1
    27     1    15    1
    28    15    16   ar
    29    16    17   ar
    30    17    18   ar
    31    18    19   ar
    32    19    20    1
    33    19    21   ar
    34    21    22    1
    35    28    29   ar
    36    29    30   ar
    37    30    35    1
    38    35    36    1
    39    36    37    1
    40    30    31   ar
    41    31    26   ar
    42    12     2   ar
    43    21    15   ar
    44    10     4   ar
    45    24    25    1
@<TRIPOS>MOLECULE
*****
 42 45 0 0 0
SMALL
GASTEIGER

@<TRIPOS>ATOM
      1 C         142.2214  141.1325  163.5669 C.3     1  UNL1        0.0798
      2 C         142.4593  141.4681  165.0095 C.ar    1  UNL1        0.0374
      3 C         141.6716  140.7739  166.0808 C.ar    1  UNL1        0.0023
      4 C         141.9095  141.1096  167.5233 C.ar    1  UNL1        0.0181
      5 C         141.1218  140.4154  168.5946 C.ar    1  UNL1        0.0082
      6 C         141.3597  140.7510  170.0370 C.ar    1  UNL1        0.0347
      7 BR        140.5721  140.0569  171.1084 Br      1  UNL1       -0.0490
      8 C         142.3853  141.7808  170.4082 C.ar    1  UNL1        0.0082
      9 C         143.1730  142.4750  169.3369 C.ar    1  UNL1        0.0197
     10 C         142.9351  142.1393  167.8945 C.ar    1  UNL1        0.0844
     11 N         143.7227  142.8335  166.8231 N.ar    1  UNL1       -0.2119
     12 C         143.4848  142.4979  165.3806 C.ar    1  UNL1        0.2211
     13 O         144.2725  143.1920  164.3093 O.3     1  UNL1       -0.4563
     14 C         143.8810  144.5699  163.8642 C.3     1  UNL1        0.2542
     15 C         141.4299  142.0665  162.7003 C.ar    1  UNL1        0.0115
     16 C         142.0218  142.5891  161.4249 C.ar    1  UNL1       -0.0017
     17 C         141.2304  143.5231  160.5582 C.ar    1  UNL1       -0.0005
     18 C         139.8469  143.9345  160.9669 C.ar    1  UNL1       -0.0021
     19 C         139.2550  143.4119  162.2422 C.ar    1  UNL1        0.0053
     20 C         137.8716  143.8232  162.6509 C.3     1  UNL1        0.0334
     21 C         140.0465  142.4778  163.1089 C.ar    1  UNL1        0.1325
     22 F         139.4546  141.9552  164.3843 F       1  UNL1       -0.2048
     23 C         142.7750  139.8628  162.9912 C.3     1  UNL1        0.1162
     24 O         144.1576  140.4421  163.0432 O.3     1  UNL1       -0.3820
     25 H         144.7932  139.7929  162.7034 H       1  UNL1        0.2107
     26 C         139.1680  138.8817  161.6582 C.ar    1  UNL1        0.2271
     27 C         140.5506  139.4609  161.7103 C.ar    1  UNL1        0.0559
     28 C         141.3923  139.2836  162.9391 C.ar    1  UNL1        0.0117
     29 C         140.8514  138.5269  164.1158 C.ar    1  UNL1        0.0559
     30 C         139.4687  137.9477  164.0638 C.ar    1  UNL1        0.2271
     31 N         138.6270  138.1250  162.8349 N.ar    1  UNL1       -0.1767
     32 O         138.3263  139.0591  160.4293 O.3     1  UNL1       -0.4602
     33 C         138.8688  140.7845  158.5642 C.3     1  UNL1        0.0512
     34 C         138.1510  140.4233  159.8308 C.3     1  UNL1        0.2072
     35 O         138.9277  137.1910  165.2406 O.3     1  UNL1       -0.4602
     36 C         138.0632  137.8892  166.2481 C.3     1  UNL1        0.2072
     37 C         138.2576  139.3519  166.5178 C.3     1  UNL1        0.0512
     38 C         143.3286  138.5932  162.4154 C.3     1  UNL1        0.0491
     39 C         144.1978  138.6401  161.1938 C.3     1  UNL1        0.0750
     40 N         143.5925  138.9355  159.8535 N.3     1  UNL1       -0.2702
     41 C         143.8359  140.2619  159.1966 C.3     1  UNL1        0.0897
     42 C         142.7439  137.9047  159.1701 C.3     1  UNL1        0.0897
@<TRIPOS>BOND
     1    33    34    1
     2    34    32    1
     3    32    26    1
     4    26    27   ar
     5    27    28   ar
     6    28    23    1
     7    23    24    1
     8    23    38    1
     9    38    39    1
    10    39    40    1
    11    40    41    1
    12    40    42    1
    13    23     1    1
    14     1     2    1
    15     2     3   ar
    16     3     4   ar
    17     4     5   ar
    18     5     6   ar
    19     6     7    1
    20     6     8   ar
    21     8     9   ar
    22     9    10   ar
    23    10    11   ar
    24    11    12   ar
    25    12    13    1
    26    13    14    1
    27     1    15    1
    28    15    16   ar
    29    16    17   ar
    30    17    18   ar
    31    18    19   ar
    32    19    20    1
    33    19    21   ar
    34    21    22    1
    35    28    29   ar
    36    29    30   ar
    37    30    35    1
    38    35    36    1
    39    36    37    1
    40    30    31   ar
    41    31    26   ar
    42    12     2   ar
    43    21    15   ar
    44    10     4   ar
    45    24    25    1
@<TRIPOS>MOLECULE
*****
 42 45 0 0 0
SMALL
GASTEIGER

@<TRIPOS>ATOM
      1 C         140.7613  140.6028  163.0712 C.3     1  UNL1        0.0798
      2 C         140.4516  140.5247  164.5369 C.ar    1  UNL1        0.0374
      3 C         140.6718  141.7209  165.4147 C.ar    1  UNL1        0.0023
      4 C         140.3621  141.6428  166.8804 C.ar    1  UNL1        0.0181
      5 C         140.5823  142.8389  167.7583 C.ar    1  UNL1        0.0082
      6 C         140.2726  142.7608  169.2238 C.ar    1  UNL1        0.0347
      7 BR        140.4928  143.9570  170.1018 Br      1  UNL1       -0.0490
      8 C         139.7427  141.4865  169.8115 C.ar    1  UNL1        0.0082
      9 C         139.5225  140.2904  168.9337 C.ar    1  UNL1        0.0197
     10 C         139.8322  140.3685  167.4681 C.ar    1  UNL1        0.0844
     11 N         139.6120  139.1723  166.5902 N.ar    1  UNL1       -0.2119
     12 C         139.9217  139.2504  165.1246 C.ar    1  UNL1        0.2211
     13 O         139.7015  138.0543  164.2467 O.3     1  UNL1       -0.4563
     14 C         140.7098  136.9439  164.2251 C.3     1  UNL1        0.2542
     15 C         141.9123  139.8250  162.5054 C.ar    1  UNL1        0.0115
     16 C         143.2578  139.8897  163.1654 C.ar    1  UNL1       -0.0017
     17 C         144.4088  139.1119  162.5996 C.ar    1  UNL1       -0.0005
     18 C         144.2144  138.2694  161.3738 C.ar    1  UNL1       -0.0021
     19 C         142.8689  138.2048  160.7138 C.ar    1  UNL1        0.0053
     20 C         142.6745  137.3624  159.4881 C.3     1  UNL1        0.0334
     21 C         141.7179  138.9826  161.2797 C.ar    1  UNL1        0.1325
     22 F         140.3724  138.9180  160.6198 F       1  UNL1       -0.2048
     23 C         139.9200  141.4587  162.1715 C.3     1  UNL1        0.1162
     24 O         138.7001  140.6855  162.5766 O.3     1  UNL1       -0.3820
     25 H         137.9242  141.0406  162.1154 H       1  UNL1        0.2107
     26 C         143.0086  143.9454  162.3329 C.ar    1  UNL1        0.2271
     27 C         141.7888  143.1722  162.7381 C.ar    1  UNL1        0.0559
     28 C         141.1398  142.2319  161.7663 C.ar    1  UNL1        0.0117
     29 C         141.7106  142.0647  160.3893 C.ar    1  UNL1        0.0559
     30 C         142.9305  142.8379  159.9841 C.ar    1  UNL1        0.2271
     31 N         143.5795  143.7783  160.9559 N.ar    1  UNL1       -0.1767
     32 O         143.6576  144.8858  163.3048 O.3     1  UNL1       -0.4602
     33 C         144.5991  143.0634  164.8993 C.3     1  UNL1        0.0512
     34 C         143.9921  144.4191  164.6906 C.3     1  UNL1        0.2072
     35 O         143.5013  142.6707  158.6070 O.3     1  UNL1       -0.4602
     36 C         144.0715  141.3484  158.1870 C.3     1  UNL1        0.2072
     37 C         143.2359  140.3900  157.3913 C.3     1  UNL1        0.0512
     38 C         139.0786  142.3146  161.2717 C.3     1  UNL1        0.0491
     39 C         137.9862  143.1639  161.8507 C.3     1  UNL1        0.0750
     40 N         138.3094  144.1942  162.8919 N.3     1  UNL1       -0.2702
     41 C         137.8733  143.9877  164.3121 C.3     1  UNL1        0.0897
     42 C         139.0685  145.4311  162.5128 C.3     1  UNL1        0.0897
@<TRIPOS>BOND
     1    33    34    1
     2    34    32    1
     3    32    26    1
     4    26    27   ar
     5    27    28   ar
     6    28    23    1
     7    23    24    1
     8    23    38    1
     9    38    39    1
    10    39    40    1
    11    40    41    1
    12    40    42    1
    13    23     1    1
    14     1     2    1
    15     2     3   ar
    16     3     4   ar
    17     4     5   ar
    18     5     6   ar
    19     6     7    1
    20     6     8   ar
    21     8     9   ar
    22     9    10   ar
    23    10    11   ar
    24    11    12   ar
    25    12    13    1
    26    13    14    1
    27     1    15    1
    28    15    16   ar
    29    16    17   ar
    30    17    18   ar
    31    18    19   ar
    32    19    20    1
    33    19    21   ar
    34    21    22    1
    35    28    29   ar
    36    29    30   ar
    37    30    35    1
    38    35    36    1
    39    36    37    1
    40    30    31   ar
    41    31    26   ar
    42    12     2   ar
    43    21    15   ar
    44    10     4   ar
    45    24    25    1
@<TRIPOS>MOLECULE
*****
 42 45 0 0 0
SMALL
GASTEIGER

@<TRIPOS>ATOM
      1 C         140.3821  141.7844  162.0868 C.3     1  UNL1        0.0798
      2 C         140.7104  142.7790  161.0130 C.ar    1  UNL1        0.0374
      3 C         139.8888  142.8273  159.7589 C.ar    1  UNL1        0.0023
      4 C         140.2171  143.8219  158.6850 C.ar    1  UNL1        0.0181
      5 C         139.3956  143.8702  157.4310 C.ar    1  UNL1        0.0082
      6 C         139.7239  144.8647  156.3572 C.ar    1  UNL1        0.0347
      7 BR        138.9024  144.9130  155.1031 Br      1  UNL1       -0.0490
      8 C         140.8738  145.8109  156.5375 C.ar    1  UNL1        0.0082
      9 C         141.6953  145.7626  157.7915 C.ar    1  UNL1        0.0197
     10 C         141.3670  144.7681  158.8653 C.ar    1  UNL1        0.0844
     11 N         142.1885  144.7198  160.1195 N.ar    1  UNL1       -0.2119
     12 C         141.8602  143.7252  161.1932 C.ar    1  UNL1        0.2211
     13 O         142.6818  143.6769  162.4474 O.3     1  UNL1       -0.4563
     14 C         142.8096  144.8989  163.3078 C.3     1  UNL1        0.2542
     15 C         140.2603  142.2332  163.5129 C.ar    1  UNL1        0.0115
     16 C         141.0064  141.5084  164.5936 C.ar    1  UNL1       -0.0017
     17 C         140.8847  141.9572  166.0197 C.ar    1  UNL1       -0.0005
     18 C         140.0167  143.1309  166.3651 C.ar    1  UNL1       -0.0021
     19 C         139.2706  143.8557  165.2844 C.ar    1  UNL1        0.0053
     20 C         138.4027  145.0293  165.6297 C.3     1  UNL1        0.0334
     21 C         139.3924  143.4068  163.8583 C.ar    1  UNL1        0.1325
     22 F         138.6463  144.1317  162.7776 F       1  UNL1       -0.2048
     23 C         140.1756  140.3411  161.7346 C.3     1  UNL1        0.1162
     24 O         138.7154  140.4726  162.0516 O.3     1  UNL1       -0.3820
     25 H         138.2747  139.6210  161.9052 H       1  UNL1        0.2107
     26 C         143.5427  139.9132  159.6781 C.ar    1  UNL1        0.2271
     27 C         142.0825  140.0447  159.9951 C.ar    1  UNL1        0.0559
     28 C         141.6358  140.2095  161.4175 C.ar    1  UNL1        0.0117
     29 C         142.6492  140.2428  162.5228 C.ar    1  UNL1        0.0559
     30 C         144.1094  140.1113  162.2058 C.ar    1  UNL1        0.2271
     31 N         144.5562  139.9465  160.7834 N.ar    1  UNL1       -0.1767
     32 O         143.9895  139.7484  158.2556 O.3     1  UNL1       -0.4602
     33 C         144.1590  142.3260  157.9784 C.3     1  UNL1        0.0512
     34 C         144.4350  140.9435  157.4662 C.3     1  UNL1        0.2072
     35 O         145.1229  140.1446  163.3112 O.3     1  UNL1       -0.4602
     36 C         145.7218  141.4511  163.7405 C.3     1  UNL1        0.2072
     37 C         144.9662  142.3527  164.6711 C.3     1  UNL1        0.0512
     38 C         139.9691  138.8977  161.3823 C.3     1  UNL1        0.0491
     39 C         139.2547  137.9875  162.3368 C.3     1  UNL1        0.0750
     40 N         139.7303  137.8646  163.7541 N.3     1  UNL1       -0.2702
     41 C         138.8768  138.3719  164.8783 C.3     1  UNL1        0.0897
     42 C         141.0595  137.2343  164.0472 C.3     1  UNL1        0.0897
@<TRIPOS>BOND
     1    33    34    1
     2    34    32    1
     3    32    26    1
     4    26    27   ar
     5    27    28   ar
     6    28    23    1
     7    23    24    1
     8    23    38    1
     9    38    39    1
    10    39    40    1
    11    40    41    1
    12    40    42    1
    13    23     1    1
    14     1     2    1
    15     2     3   ar
    16     3     4   ar
    17     4     5   ar
    18     5     6   ar
    19     6     7    1
    20     6     8   ar
    21     8     9   ar
    22     9    10   ar
    23    10    11   ar
    24    11    12   ar
    25    12    13    1
    26    13    14    1
    27     1    15    1
    28    15    16   ar
    29    16    17   ar
    30    17    18   ar
    31    18    19   ar
    32    19    20    1
    33    19    21   ar
    34    21    22    1
    35    28    29   ar
    36    29    30   ar
    37    30    35    1
    38    35    36    1
    39    36    37    1
    40    30    31   ar
    41    31    26   ar
    42    12     2   ar
    43    21    15   ar
    44    10     4   ar
    45    24    25    1
@<TRIPOS>MOLECULE
*****
 42 45 0 0 0
SMALL
GASTEIGER

@<TRIPOS>ATOM
      1 C         140.2558  141.3188  163.3344 C.3     1  UNL1        0.0798
      2 C         139.8603  141.6977  161.9379 C.ar    1  UNL1        0.0374
      3 C         140.7863  141.4126  160.7928 C.ar    1  UNL1        0.0023
      4 C         140.3908  141.7914  159.3963 C.ar    1  UNL1        0.0181
      5 C         141.3167  141.5063  158.2512 C.ar    1  UNL1        0.0082
      6 C         140.9213  141.8852  156.8547 C.ar    1  UNL1        0.0347
      7 BR        141.8472  141.6000  155.7095 Br      1  UNL1       -0.0490
      8 C         139.6000  142.5492  156.6034 C.ar    1  UNL1        0.0082
      9 C         138.6741  142.8343  157.7486 C.ar    1  UNL1        0.0197
     10 C         139.0695  142.4554  159.1450 C.ar    1  UNL1        0.0844
     11 N         138.1436  142.7405  160.2902 N.ar    1  UNL1       -0.2119
     12 C         138.5390  142.3617  161.6866 C.ar    1  UNL1        0.2211
     13 O         137.6131  142.6468  162.8318 O.3     1  UNL1       -0.4563
     14 C         137.4932  144.0418  163.3699 C.3     1  UNL1        0.2542
     15 C         139.7133  140.0648  163.9534 C.ar    1  UNL1        0.0115
     16 C         139.8728  138.7506  163.2483 C.ar    1  UNL1       -0.0017
     17 C         139.3303  137.4966  163.8673 C.ar    1  UNL1       -0.0005
     18 C         138.6282  137.5568  165.1915 C.ar    1  UNL1       -0.0021
     19 C         138.4687  138.8711  165.8967 C.ar    1  UNL1        0.0053
     20 C         137.7667  138.9314  167.2209 C.3     1  UNL1        0.0334
     21 C         139.0113  140.1251  165.2776 C.ar    1  UNL1        0.1325
     22 F         138.8517  141.4394  165.9828 F       1  UNL1       -0.2048
     23 C         141.1937  142.1940  164.1119 C.3     1  UNL1        0.1162
     24 O         140.3109  143.3770  163.8451 O.3     1  UNL1       -0.3820
     25 H         140.6924  144.1656  164.2616 H       1  UNL1        0.2107
     26 C         143.1295  139.3199  166.0465 C.ar    1  UNL1        0.2271
     27 C         142.2467  140.5030  165.7797 C.ar    1  UNL1        0.0559
     28 C         142.0764  141.0109  164.3787 C.ar    1  UNL1        0.0117
     29 C         142.7889  140.3359  163.2444 C.ar    1  UNL1        0.0559
     30 C         143.6717  139.1528  163.5112 C.ar    1  UNL1        0.2271
     31 N         143.8419  138.6449  164.9122 N.ar    1  UNL1       -0.1767
     32 O         143.2997  138.8120  167.4476 O.3     1  UNL1       -0.4602
     33 C         142.5547  138.8401  169.9364 C.3     1  UNL1        0.0512
     34 C         142.5798  139.4813  168.5806 C.3     1  UNL1        0.2072
     35 O         144.3842  138.4778  162.3768 O.3     1  UNL1       -0.4602
     36 C         144.0068  138.7939  160.9599 C.3     1  UNL1        0.2072
     37 C         142.8534  138.0843  160.3148 C.3     1  UNL1        0.0512
     38 C         142.1316  143.0691  164.8893 C.3     1  UNL1        0.0491
     39 C         142.8210  144.2167  164.2128 C.3     1  UNL1        0.0750
     40 N         143.2079  144.1125  162.7674 N.3     1  UNL1       -0.2702
     41 C         142.2841  144.6290  161.7045 C.3     1  UNL1        0.0897
     42 C         144.5187  143.4918  162.3847 C.3     1  UNL1        0.0897
@<TRIPOS>BOND
     1    33    34    1
     2    34    32    1
     3    32    26    1
     4    26    27   ar
     5    27    28   ar
     6    28    23    1
     7    23    24    1
     8    23    38    1
     9    38    39    1
    10    39    40    1
    11    40    41    1
    12    40    42    1
    13    23     1    1
    14     1     2    1
    15     2     3   ar
    16     3     4   ar
    17     4     5   ar
    18     5     6   ar
    19     6     7    1
    20     6     8   ar
    21     8     9   ar
    22     9    10   ar
    23    10    11   ar
    24    11    12   ar
    25    12    13    1
    26    13    14    1
    27     1    15    1
    28    15    16   ar
    29    16    17   ar
    30    17    18   ar
    31    18    19   ar
    32    19    20    1
    33    19    21   ar
    34    21    22    1
    35    28    29   ar
    36    29    30   ar
    37    30    35    1
    38    35    36    1
    39    36    37    1
    40    30    31   ar
    41    31    26   ar
    42    12     2   ar
    43    21    15   ar
    44    10     4   ar
    45    24    25    1
