@<TRIPOS>MOLECULE
*****
 36 38 0 0 0
SMALL
GASTEIGER

@<TRIPOS>ATOM
      1 C         142.9225  140.4746  165.2954 C.2     1  UNL1        0.2521
      2 O         144.0607  139.5007  165.2178 O.2     1  UNL1       -0.2698
      3 N         142.4909  141.2231  164.0692 N.am    1  UNL1       -0.2725
      4 C         141.3526  142.1969  164.1469 C.3     1  UNL1        0.1152
      5 C         140.9210  142.9454  162.9207 C.3     1  UNL1        0.1137
      6 N         141.6276  142.7201  161.6169 N.pl3   1  UNL1       -0.2880
      7 C         142.7659  141.7462  161.5393 C.3     1  UNL1        0.1137
      8 C         143.1975  140.9977  162.7655 C.3     1  UNL1        0.1152
      9 C         141.1960  143.4686  160.3908 C.ar    1  UNL1        0.1594
     10 N         141.9237  144.7133  159.9770 N.ar    1  UNL1       -0.2269
     11 C         141.4921  145.4618  158.7508 C.ar    1  UNL1        0.1043
     12 C         140.3328  144.9655  157.9384 C.ar    1  UNL1        0.0929
     13 C         139.6053  143.7208  158.3522 C.ar    1  UNL1        0.0380
     14 C         140.0369  142.9723  159.5784 C.ar    1  UNL1        0.1715
     15 F         139.3092  141.7275  159.9921 F       1  UNL1       -0.2012
     16 C         139.9012  145.7140  156.7123 C.3     1  UNL1        0.4201
     17 F         139.4696  146.4625  155.4861 F       1  UNL1       -0.1658
     18 F         139.6527  146.9361  157.5458 F       1  UNL1       -0.1658
     19 F         140.1497  144.4919  155.8788 F       1  UNL1       -0.1658
     20 C         140.9119  140.0114  166.8745 C.ar    1  UNL1        0.1432
     21 C         140.2053  140.2368  168.1782 C.ar    1  UNL1        0.0384
     22 C         140.8026  141.1508  169.2068 C.ar    1  UNL1        0.0215
     23 C         142.1064  141.8394  168.9316 C.ar    1  UNL1        0.1061
     24 C         142.8130  141.6140  167.6278 C.ar    1  UNL1        0.0259
     25 C         142.2158  140.7000  166.5992 C.ar    1  UNL1        0.0887
     26 S         142.7036  142.7534  169.9601 S.O2    1  UNL1        0.0105
     27 C         143.3009  143.6674  170.9887 C.3     1  UNL1        0.1816
     28 O         141.4038  142.7602  170.7087 O.2     1  UNL1       -0.1686
     29 O         144.0035  142.7465  169.2115 O.2     1  UNL1       -0.1686
     30 O         140.3147  139.0974  165.8459 O.3     1  UNL1       -0.4702
     31 C         138.1004  140.0830  164.9104 C.3     1  UNL1        0.0566
     32 C         138.8254  139.0219  165.6840 C.3     1  UNL1        0.2599
     33 C         138.0611  137.8853  166.2955 C.3     1  UNL1        0.4340
     34 F         137.2968  136.7487  166.9071 F       1  UNL1       -0.1664
     35 F         138.8200  136.9146  165.4401 F       1  UNL1       -0.1664
     36 F         137.3022  138.8559  167.1510 F       1  UNL1       -0.1664
@<TRIPOS>BOND
     1    31    32    1
     2    32    30    1
     3    30    20    1
     4    20    21   ar
     5    21    22   ar
     6    22    23   ar
     7    23    26    1
     8    26    27    1
     9    26    28    2
    10    26    29    2
    11    23    24   ar
    12    24    25   ar
    13    25     1    1
    14     1     2    2
    15     1     3   am
    16     3     4    1
    17     4     5    1
    18     5     6    1
    19     6     9    1
    20     9    10   ar
    21    10    11   ar
    22    11    12   ar
    23    12    16    1
    24    16    17    1
    25    16    18    1
    26    16    19    1
    27    12    13   ar
    28    13    14   ar
    29    14    15    1
    30     6     7    1
    31     7     8    1
    32    32    33    1
    33    33    34    1
    34    33    35    1
    35    33    36    1
    36    25    20   ar
    37     8     3    1
    38    14     9   ar
@<TRIPOS>MOLECULE
*****
 36 38 0 0 0
SMALL
GASTEIGER

@<TRIPOS>ATOM
      1 C         139.1921  142.2976  164.5509 C.2     1  UNL1        0.2521
      2 O         137.9380  143.1058  164.3963 O.2     1  UNL1       -0.2698
      3 N         140.1283  142.1364  163.3900 N.am    1  UNL1       -0.2725
      4 C         141.3825  141.3282  163.5447 C.3     1  UNL1        0.1152
      5 C         142.3187  141.1669  162.3838 C.3     1  UNL1        0.1137
      6 N         142.0007  141.8139  161.0683 N.pl3   1  UNL1       -0.2880
      7 C         140.7465  142.6220  160.9137 C.3     1  UNL1        0.1137
      8 C         139.8103  142.7832  162.0746 C.3     1  UNL1        0.1152
      9 C         142.9368  141.6526  159.9075 C.ar    1  UNL1        0.1594
     10 N         143.9307  142.7305  159.5901 N.ar    1  UNL1       -0.2269
     11 C         144.8669  142.5692  158.4293 C.ar    1  UNL1        0.1043
     12 C         144.8092  141.3301  157.5858 C.ar    1  UNL1        0.0929
     13 C         143.8154  140.2523  157.9032 C.ar    1  UNL1        0.0380
     14 C         142.8793  140.4136  159.0640 C.ar    1  UNL1        0.1715
     15 F         141.8854  139.3357  159.3814 F       1  UNL1       -0.2012
     16 C         145.7454  141.1688  156.4249 C.3     1  UNL1        0.4201
     17 F         146.6816  141.0076  155.2641 F       1  UNL1       -0.1658
     18 F         146.4419  142.4403  156.8100 F       1  UNL1       -0.1658
     19 F         145.0489  139.8973  156.0399 F       1  UNL1       -0.1658
     20 C         138.9733  140.2857  166.1801 C.ar    1  UNL1        0.1432
     21 C         139.2914  139.6388  167.4955 C.ar    1  UNL1        0.0384
     22 C         140.1463  140.3570  168.4972 C.ar    1  UNL1        0.0215
     23 C         140.6831  141.7220  168.1834 C.ar    1  UNL1        0.1061
     24 C         140.3651  142.3689  166.8680 C.ar    1  UNL1        0.0259
     25 C         139.5102  141.6507  165.8663 C.ar    1  UNL1        0.0887
     26 S         141.5381  142.4402  169.1851 S.O2    1  UNL1        0.0105
     27 C         142.3930  143.1583  170.1868 C.3     1  UNL1        0.1816
     28 O         142.5569  141.3424  169.1026 O.2     1  UNL1       -0.1686
     29 O         140.5192  143.5380  169.2676 O.2     1  UNL1       -0.1686
     30 O         138.1184  139.5675  165.1784 O.3     1  UNL1       -0.4702
     31 C         138.3929  138.9466  162.6706 C.3     1  UNL1        0.0566
     32 C         138.7573  138.7312  164.1097 C.3     1  UNL1        0.2599
     33 C         139.7606  137.6793  164.4799 C.3     1  UNL1        0.4340
     34 F         140.7639  136.6275  164.8502 F       1  UNL1       -0.1664
     35 F         140.7424  138.2764  163.5158 F       1  UNL1       -0.1664
     36 F         138.7788  137.0822  165.4440 F       1  UNL1       -0.1664
@<TRIPOS>BOND
     1    31    32    1
     2    32    30    1
     3    30    20    1
     4    20    21   ar
     5    21    22   ar
     6    22    23   ar
     7    23    26    1
     8    26    27    1
     9    26    28    2
    10    26    29    2
    11    23    24   ar
    12    24    25   ar
    13    25     1    1
    14     1     2    2
    15     1     3   am
    16     3     4    1
    17     4     5    1
    18     5     6    1
    19     6     9    1
    20     9    10   ar
    21    10    11   ar
    22    11    12   ar
    23    12    16    1
    24    16    17    1
    25    16    18    1
    26    16    19    1
    27    12    13   ar
    28    13    14   ar
    29    14    15    1
    30     6     7    1
    31     7     8    1
    32    32    33    1
    33    33    34    1
    34    33    35    1
    35    33    36    1
    36    25    20   ar
    37     8     3    1
    38    14     9   ar
@<TRIPOS>MOLECULE
*****
 36 38 0 0 0
SMALL
GASTEIGER

@<TRIPOS>ATOM
      1 C         139.2203  142.3308  164.6982 C.2     1  UNL1        0.2521
      2 O         137.9984  143.1923  164.5779 O.2     1  UNL1       -0.2698
      3 N         140.1172  142.1316  163.5125 N.am    1  UNL1       -0.2725
      4 C         141.3393  141.2700  163.6328 C.3     1  UNL1        0.1152
      5 C         142.2362  141.0708  162.4471 C.3     1  UNL1        0.1137
      6 N         141.9110  141.7332  161.1411 N.pl3   1  UNL1       -0.2880
      7 C         140.6890  142.5947  161.0208 C.3     1  UNL1        0.1137
      8 C         139.7921  142.7939  162.2065 C.3     1  UNL1        0.1152
      9 C         142.8079  141.5339  159.9554 C.ar    1  UNL1        0.1594
     10 N         142.4632  140.5062  158.9186 N.ar    1  UNL1       -0.2269
     11 C         143.3601  140.3069  157.7329 C.ar    1  UNL1        0.1043
     12 C         144.6017  141.1355  157.5840 C.ar    1  UNL1        0.0929
     13 C         144.9463  142.1632  158.6208 C.ar    1  UNL1        0.0380
     14 C         144.0494  142.3624  159.8065 C.ar    1  UNL1        0.1715
     15 F         144.3941  143.3902  160.8433 F       1  UNL1       -0.2012
     16 C         145.4986  140.9363  156.3983 C.3     1  UNL1        0.4201
     17 F         146.3955  140.7370  155.2126 F       1  UNL1       -0.1658
     18 F         144.6461  139.7877  155.9465 F       1  UNL1       -0.1658
     19 F         146.3510  142.0848  156.8501 F       1  UNL1       -0.1658
     20 C         139.0074  140.3013  166.3063 C.ar    1  UNL1        0.1432
     21 C         139.3325  139.6391  167.6123 C.ar    1  UNL1        0.0384
     22 C         140.1958  140.3439  168.6162 C.ar    1  UNL1        0.0215
     23 C         140.7339  141.7111  168.3142 C.ar    1  UNL1        0.1061
     24 C         140.4088  142.3734  167.0082 C.ar    1  UNL1        0.0259
     25 C         139.5455  141.6685  166.0042 C.ar    1  UNL1        0.0887
     26 S         141.5972  142.4160  169.3181 S.O2    1  UNL1        0.0105
     27 C         142.4605  143.1208  170.3220 C.3     1  UNL1        0.1816
     28 O         140.4454  142.4592  170.2781 O.2     1  UNL1       -0.1686
     29 O         142.7489  142.3727  168.3581 O.2     1  UNL1       -0.1686
     30 O         138.1441  139.5964  165.3023 O.3     1  UNL1       -0.4702
     31 C         139.8942  137.7818  164.6747 C.3     1  UNL1        0.0566
     32 C         138.7671  138.6904  164.2821 C.3     1  UNL1        0.2599
     33 C         138.2631  138.6930  162.8693 C.3     1  UNL1        0.4340
     34 F         137.7591  138.6956  161.4565 F       1  UNL1       -0.1664
     35 F         138.9076  137.3586  162.6369 F       1  UNL1       -0.1664
     36 F         137.6187  140.0274  163.1017 F       1  UNL1       -0.1664
@<TRIPOS>BOND
     1    31    32    1
     2    32    30    1
     3    30    20    1
     4    20    21   ar
     5    21    22   ar
     6    22    23   ar
     7    23    26    1
     8    26    27    1
     9    26    28    2
    10    26    29    2
    11    23    24   ar
    12    24    25   ar
    13    25     1    1
    14     1     2    2
    15     1     3   am
    16     3     4    1
    17     4     5    1
    18     5     6    1
    19     6     9    1
    20     9    10   ar
    21    10    11   ar
    22    11    12   ar
    23    12    16    1
    24    16    17    1
    25    16    18    1
    26    16    19    1
    27    12    13   ar
    28    13    14   ar
    29    14    15    1
    30     6     7    1
    31     7     8    1
    32    32    33    1
    33    33    34    1
    34    33    35    1
    35    33    36    1
    36    25    20   ar
    37     8     3    1
    38    14     9   ar
@<TRIPOS>MOLECULE
*****
 36 38 0 0 0
SMALL
GASTEIGER

@<TRIPOS>ATOM
      1 C         139.8138  139.5530  165.1439 C.2     1  UNL1        0.2521
      2 O         138.8873  138.3757  165.0703 O.2     1  UNL1       -0.2698
      3 N         139.9713  140.4588  163.9587 N.am    1  UNL1       -0.2725
      4 C         140.8979  141.6362  164.0325 C.3     1  UNL1        0.1152
      5 C         141.0553  142.5420  162.8473 C.3     1  UNL1        0.1137
      6 N         140.2862  142.2705  161.5884 N.pl3   1  UNL1       -0.2880
      7 C         139.3597  141.0932  161.5147 C.3     1  UNL1        0.1137
      8 C         139.2022  140.1874  162.6999 C.3     1  UNL1        0.1152
      9 C         140.4436  143.1763  160.4032 C.ar    1  UNL1        0.1594
     10 N         140.9540  142.6287  159.1032 N.ar    1  UNL1       -0.2269
     11 C         141.1114  143.5345  157.9180 C.ar    1  UNL1        0.1043
     12 C         140.7585  144.9880  158.0328 C.ar    1  UNL1        0.0929
     13 C         140.2482  145.5355  159.3327 C.ar    1  UNL1        0.0380
     14 C         140.0908  144.6297  160.5179 C.ar    1  UNL1        0.1715
     15 F         139.5804  145.1773  161.8178 F       1  UNL1       -0.2012
     16 C         140.9160  145.8938  156.8476 C.3     1  UNL1        0.4201
     17 F         141.0735  146.7996  155.6624 F       1  UNL1       -0.1658
     18 F         139.5360  145.5298  156.3860 F       1  UNL1       -0.1658
     19 F         142.2960  146.2578  157.3092 F       1  UNL1       -0.1658
     20 C         141.9069  139.1576  166.6315 C.ar    1  UNL1        0.1432
     21 C         142.6759  139.4291  167.8904 C.ar    1  UNL1        0.0384
     22 C         142.1210  140.3676  168.9206 C.ar    1  UNL1        0.0215
     23 C         140.7971  141.0345  168.6919 C.ar    1  UNL1        0.1061
     24 C         140.0281  140.7630  167.4331 C.ar    1  UNL1        0.0259
     25 C         140.5829  139.8245  166.4029 C.ar    1  UNL1        0.0887
     26 S         140.2422  141.9730  169.7221 S.O2    1  UNL1        0.0105
     27 C         139.6873  142.9115  170.7524 C.3     1  UNL1        0.1816
     28 O         139.9628  140.8117  170.6295 O.2     1  UNL1       -0.1686
     29 O         140.5216  143.1343  168.8147 O.2     1  UNL1       -0.1686
     30 O         142.4618  138.2191  165.6013 O.3     1  UNL1       -0.4702
     31 C         144.3101  139.7540  164.6126 C.3     1  UNL1        0.0566
     32 C         143.2036  138.7607  164.4154 C.3     1  UNL1        0.2599
     33 C         142.8388  138.3090  163.0323 C.3     1  UNL1        0.4340
     34 F         142.4740  137.8574  161.6492 F       1  UNL1       -0.1664
     35 F         143.8538  139.2516  162.4567 F       1  UNL1       -0.1664
     36 F         141.8237  137.3665  163.6078 F       1  UNL1       -0.1664
@<TRIPOS>BOND
     1    31    32    1
     2    32    30    1
     3    30    20    1
     4    20    21   ar
     5    21    22   ar
     6    22    23   ar
     7    23    26    1
     8    26    27    1
     9    26    28    2
    10    26    29    2
    11    23    24   ar
    12    24    25   ar
    13    25     1    1
    14     1     2    2
    15     1     3   am
    16     3     4    1
    17     4     5    1
    18     5     6    1
    19     6     9    1
    20     9    10   ar
    21    10    11   ar
    22    11    12   ar
    23    12    16    1
    24    16    17    1
    25    16    18    1
    26    16    19    1
    27    12    13   ar
    28    13    14   ar
    29    14    15    1
    30     6     7    1
    31     7     8    1
    32    32    33    1
    33    33    34    1
    34    33    35    1
    35    33    36    1
    36    25    20   ar
    37     8     3    1
    38    14     9   ar
@<TRIPOS>MOLECULE
*****
 36 38 0 0 0
SMALL
GASTEIGER

@<TRIPOS>ATOM
      1 C         141.9479  140.5357  163.2579 C.2     1  UNL1        0.2521
      2 O         143.0312  140.2408  164.2527 O.2     1  UNL1       -0.2698
      3 N         141.9423  139.8426  161.9277 N.am    1  UNL1       -0.2725
      4 C         140.8589  140.1376  160.9329 C.3     1  UNL1        0.1152
      5 C         140.8533  139.4445  159.6026 C.3     1  UNL1        0.1137
      6 N         141.9309  138.4564  159.2671 N.pl3   1  UNL1       -0.2880
      7 C         143.0141  138.1615  160.2619 C.3     1  UNL1        0.1137
      8 C         143.0198  138.8546  161.5921 C.3     1  UNL1        0.1152
      9 C         141.9252  137.7633  157.9369 C.ar    1  UNL1        0.1594
     10 N         143.2173  137.3225  157.3153 N.ar    1  UNL1       -0.2269
     11 C         143.2116  136.6294  155.9851 C.ar    1  UNL1        0.1043
     12 C         141.9138  136.3772  155.2764 C.ar    1  UNL1        0.0929
     13 C         140.6218  136.8180  155.8979 C.ar    1  UNL1        0.0380
     14 C         140.6275  137.5111  157.2282 C.ar    1  UNL1        0.1715
     15 F         139.3354  137.9519  157.8497 F       1  UNL1       -0.2012
     16 C         141.9082  135.6841  153.9461 C.3     1  UNL1        0.4201
     17 F         141.9025  134.9910  152.6158 F       1  UNL1       -0.1658
     18 F         140.4845  136.1055  153.7326 F       1  UNL1       -0.1658
     19 F         143.3318  135.2627  154.1596 F       1  UNL1       -0.1658
     20 C         139.8500  141.1935  164.6421 C.ar    1  UNL1        0.1432
     21 C         138.7724  142.1816  164.9775 C.ar    1  UNL1        0.0384
     22 C         138.7152  143.5000  164.2643 C.ar    1  UNL1        0.0215
     23 C         139.7356  143.8302  163.2156 C.ar    1  UNL1        0.1061
     24 C         140.8131  142.8422  162.8802 C.ar    1  UNL1        0.0259
     25 C         140.8703  141.5238  163.5934 C.ar    1  UNL1        0.0887
     26 S         139.6784  145.1486  162.5023 S.O2    1  UNL1        0.0105
     27 C         139.6212  146.4669  161.7891 C.3     1  UNL1        0.1816
     28 O         141.1604  145.3050  162.6727 O.2     1  UNL1       -0.1686
     29 O         138.1963  144.9921  162.3320 O.2     1  UNL1       -0.1686
     30 O         139.9072  139.8752  165.3553 O.3     1  UNL1       -0.4702
     31 C         138.8063  138.3456  163.5669 C.3     1  UNL1        0.0566
     32 C         138.9422  138.7849  164.9947 C.3     1  UNL1        0.2599
     33 C         138.1132  138.1338  166.0619 C.3     1  UNL1        0.4340
     34 F         137.2841  137.4828  167.1290 F       1  UNL1       -0.1664
     35 F         138.5960  136.7859  165.6147 F       1  UNL1       -0.1664
     36 F         137.6304  139.4817  166.5091 F       1  UNL1       -0.1664
@<TRIPOS>BOND
     1    31    32    1
     2    32    30    1
     3    30    20    1
     4    20    21   ar
     5    21    22   ar
     6    22    23   ar
     7    23    26    1
     8    26    27    1
     9    26    28    2
    10    26    29    2
    11    23    24   ar
    12    24    25   ar
    13    25     1    1
    14     1     2    2
    15     1     3   am
    16     3     4    1
    17     4     5    1
    18     5     6    1
    19     6     9    1
    20     9    10   ar
    21    10    11   ar
    22    11    12   ar
    23    12    16    1
    24    16    17    1
    25    16    18    1
    26    16    19    1
    27    12    13   ar
    28    13    14   ar
    29    14    15    1
    30     6     7    1
    31     7     8    1
    32    32    33    1
    33    33    34    1
    34    33    35    1
    35    33    36    1
    36    25    20   ar
    37     8     3    1
    38    14     9   ar
@<TRIPOS>MOLECULE
*****
 36 38 0 0 0
SMALL
GASTEIGER

@<TRIPOS>ATOM
      1 C         138.3798  140.2949  160.7462 C.2     1  UNL1        0.2521
      2 O         137.0675  139.6123  160.4971 O.2     1  UNL1       -0.2698
      3 N         139.0442  140.1768  162.0858 N.am    1  UNL1       -0.2725
      4 C         140.3565  140.8595  162.3349 C.3     1  UNL1        0.1152
      5 C         141.0209  140.7414  163.6745 C.3     1  UNL1        0.1137
      6 N         140.3731  139.9408  164.7650 N.pl3   1  UNL1       -0.2880
      7 C         139.0608  139.2582  164.5159 C.3     1  UNL1        0.1137
      8 C         138.3964  139.3762  163.1763 C.3     1  UNL1        0.1152
      9 C         141.0375  139.8227  166.1047 C.ar    1  UNL1        0.1594
     10 N         140.4108  140.4566  167.3111 N.ar    1  UNL1       -0.2269
     11 C         141.0752  140.3385  168.6508 C.ar    1  UNL1        0.1043
     12 C         142.3664  139.5866  168.7839 C.ar    1  UNL1        0.0929
     13 C         142.9930  138.9528  167.5775 C.ar    1  UNL1        0.0380
     14 C         142.3286  139.0708  166.2378 C.ar    1  UNL1        0.1715
     15 F         142.9553  138.4370  165.0314 F       1  UNL1       -0.2012
     16 C         143.0308  139.4686  170.1235 C.3     1  UNL1        0.4201
     17 F         143.6952  139.3505  171.4632 F       1  UNL1       -0.1658
     18 F         142.6067  138.0322  170.2073 F       1  UNL1       -0.1658
     19 F         143.4548  140.9049  170.0398 F       1  UNL1       -0.1658
     20 C         138.8711  142.5871  159.6261 C.ar    1  UNL1        0.1432
     21 C         139.5190  143.3877  158.5356 C.ar    1  UNL1        0.0384
     22 C         140.3233  142.6968  157.4746 C.ar    1  UNL1        0.0215
     23 C         140.4798  141.2053  157.5041 C.ar    1  UNL1        0.1061
     24 C         139.8319  140.4047  158.5946 C.ar    1  UNL1        0.0259
     25 C         139.0276  141.0956  159.6556 C.ar    1  UNL1        0.0887
     26 S         141.2841  140.5144  156.4431 S.O2    1  UNL1        0.0105
     27 C         142.0884  139.8235  155.3821 C.3     1  UNL1        0.1816
     28 O         141.4154  141.8101  155.6989 O.2     1  UNL1       -0.1686
     29 O         141.1528  139.2187  157.1873 O.2     1  UNL1       -0.1686
     30 O         138.0668  143.2780  160.6871 O.3     1  UNL1       -0.4702
     31 C         140.1274  144.4731  161.7242 C.3     1  UNL1        0.0566
     32 C         138.7550  143.8863  161.8729 C.3     1  UNL1        0.2599
     33 C         138.0707  143.9080  163.2077 C.3     1  UNL1        0.4340
     34 F         137.3865  143.9296  164.5423 F       1  UNL1       -0.1664
     35 F         138.9144  145.0772  163.6213 F       1  UNL1       -0.1664
     36 F         137.2270  142.7388  162.7940 F       1  UNL1       -0.1664
@<TRIPOS>BOND
     1    31    32    1
     2    32    30    1
     3    30    20    1
     4    20    21   ar
     5    21    22   ar
     6    22    23   ar
     7    23    26    1
     8    26    27    1
     9    26    28    2
    10    26    29    2
    11    23    24   ar
    12    24    25   ar
    13    25     1    1
    14     1     2    2
    15     1     3   am
    16     3     4    1
    17     4     5    1
    18     5     6    1
    19     6     9    1
    20     9    10   ar
    21    10    11   ar
    22    11    12   ar
    23    12    16    1
    24    16    17    1
    25    16    18    1
    26    16    19    1
    27    12    13   ar
    28    13    14   ar
    29    14    15    1
    30     6     7    1
    31     7     8    1
    32    32    33    1
    33    33    34    1
    34    33    35    1
    35    33    36    1
    36    25    20   ar
    37     8     3    1
    38    14     9   ar
@<TRIPOS>MOLECULE
*****
 36 38 0 0 0
SMALL
GASTEIGER

@<TRIPOS>ATOM
      1 C         142.2441  139.0221  164.6513 C.2     1  UNL1        0.2521
      2 O         142.2857  137.5793  165.0593 O.2     1  UNL1       -0.2698
      3 N         142.6911  139.4263  163.2777 N.am    1  UNL1       -0.2725
      4 C         142.6494  140.8692  162.8697 C.3     1  UNL1        0.1152
      5 C         143.0964  141.2734  161.4960 C.3     1  UNL1        0.1137
      6 N         143.5850  140.2347  160.5304 N.pl3   1  UNL1       -0.2880
      7 C         143.6266  138.7919  160.9384 C.3     1  UNL1        0.1137
      8 C         143.1797  138.3877  162.3120 C.3     1  UNL1        0.1152
      9 C         144.0319  140.6388  159.1568 C.ar    1  UNL1        0.1594
     10 N         143.7482  139.7484  157.9834 N.ar    1  UNL1       -0.2269
     11 C         144.1952  140.1525  156.6098 C.ar    1  UNL1        0.1043
     12 C         144.9259  141.4472  156.4095 C.ar    1  UNL1        0.0929
     13 C         145.2096  142.3376  157.5828 C.ar    1  UNL1        0.0380
     14 C         144.7626  141.9334  158.9564 C.ar    1  UNL1        0.1715
     15 F         145.0464  142.8239  160.1298 F       1  UNL1       -0.2012
     16 C         145.3728  141.8513  155.0359 C.3     1  UNL1        0.4201
     17 F         145.8198  142.2555  153.6622 F       1  UNL1       -0.1658
     18 F         146.4043  142.7586  155.6384 F       1  UNL1       -0.1658
     19 F         144.3414  140.9441  154.4333 F       1  UNL1       -0.1658
     20 C         140.3803  140.6398  165.4633 C.ar    1  UNL1        0.1432
     21 C         139.8917  141.6785  166.4289 C.ar    1  UNL1        0.0384
     22 C         140.7783  142.1382  167.5481 C.ar    1  UNL1        0.0215
     23 C         142.1535  141.5592  167.7017 C.ar    1  UNL1        0.1061
     24 C         142.6421  140.5206  166.7361 C.ar    1  UNL1        0.0259
     25 C         141.7555  140.0609  165.6169 C.ar    1  UNL1        0.0887
     26 S         143.0402  142.0190  168.8209 S.O2    1  UNL1        0.0105
     27 C         143.9268  142.4787  169.9401 C.3     1  UNL1        0.1816
     28 O         143.8420  142.8347  167.8505 O.2     1  UNL1       -0.1686
     29 O         142.2383  141.2032  169.7912 O.2     1  UNL1       -0.1686
     30 O         139.4937  140.1801  164.3442 O.3     1  UNL1       -0.4702
     31 C         138.8249  137.9819  163.1316 C.3     1  UNL1        0.0566
     32 C         138.8886  138.8081  164.3819 C.3     1  UNL1        0.2599
     33 C         138.3472  138.2622  165.6699 C.3     1  UNL1        0.4340
     34 F         137.8059  137.7164  166.9579 F       1  UNL1       -0.1664
     35 F         137.5481  139.5165  165.8657 F       1  UNL1       -0.1664
     36 F         139.1463  137.0080  165.4742 F       1  UNL1       -0.1664
@<TRIPOS>BOND
     1    31    32    1
     2    32    30    1
     3    30    20    1
     4    20    21   ar
     5    21    22   ar
     6    22    23   ar
     7    23    26    1
     8    26    27    1
     9    26    28    2
    10    26    29    2
    11    23    24   ar
    12    24    25   ar
    13    25     1    1
    14     1     2    2
    15     1     3   am
    16     3     4    1
    17     4     5    1
    18     5     6    1
    19     6     9    1
    20     9    10   ar
    21    10    11   ar
    22    11    12   ar
    23    12    16    1
    24    16    17    1
    25    16    18    1
    26    16    19    1
    27    12    13   ar
    28    13    14   ar
    29    14    15    1
    30     6     7    1
    31     7     8    1
    32    32    33    1
    33    33    34    1
    34    33    35    1
    35    33    36    1
    36    25    20   ar
    37     8     3    1
    38    14     9   ar
@<TRIPOS>MOLECULE
*****
 36 38 0 0 0
SMALL
GASTEIGER

@<TRIPOS>ATOM
      1 C         143.1377  139.6698  158.9658 C.2     1  UNL1        0.2521
      2 O         144.4204  139.9533  158.2417 O.2     1  UNL1       -0.2698
      3 N         143.0675  139.8259  160.4560 N.am    1  UNL1       -0.2725
      4 C         141.7848  139.5424  161.1802 C.3     1  UNL1        0.1152
      5 C         141.7145  139.6985  162.6704 C.3     1  UNL1        0.1137
      6 N         142.9270  140.1381  163.4364 N.pl3   1  UNL1       -0.2880
      7 C         144.2096  140.4216  162.7123 C.3     1  UNL1        0.1137
      8 C         144.2799  140.2655  161.2221 C.3     1  UNL1        0.1152
      9 C         142.8568  140.2942  164.9266 C.ar    1  UNL1        0.1594
     10 N         142.9174  141.6612  165.5412 N.ar    1  UNL1       -0.2269
     11 C         142.8472  141.8173  167.0314 C.ar    1  UNL1        0.1043
     12 C         142.7163  140.6064  167.9070 C.ar    1  UNL1        0.0929
     13 C         142.6556  139.2395  167.2924 C.ar    1  UNL1        0.0380
     14 C         142.7259  139.0834  165.8022 C.ar    1  UNL1        0.1715
     15 F         142.6652  137.7164  165.1876 F       1  UNL1       -0.2012
     16 C         142.6461  140.7625  169.3972 C.3     1  UNL1        0.4201
     17 F         142.5758  140.9186  170.8874 F       1  UNL1       -0.1658
     18 F         142.7156  142.2531  169.2444 F       1  UNL1       -0.1658
     19 F         142.5765  139.2719  169.5501 F       1  UNL1       -0.1658
     20 C         141.8628  137.8466  157.6240 C.ar    1  UNL1        0.1432
     21 C         140.6504  137.4070  156.8580 C.ar    1  UNL1        0.0384
     22 C         139.5004  138.3511  156.6678 C.ar    1  UNL1        0.0215
     23 C         139.5628  139.7348  157.2436 C.ar    1  UNL1        0.1061
     24 C         140.7753  140.1743  158.0096 C.ar    1  UNL1        0.0259
     25 C         141.9253  139.2302  158.1998 C.ar    1  UNL1        0.0887
     26 S         138.4129  140.6789  157.0534 S.O2    1  UNL1        0.0105
     27 C         137.2629  141.6230  156.8632 C.3     1  UNL1        0.1816
     28 O         137.6891  139.6362  156.2540 O.2     1  UNL1       -0.1686
     29 O         139.1366  141.7215  157.8528 O.2     1  UNL1       -0.1686
     30 O         143.0128  136.9024  157.8142 O.3     1  UNL1       -0.4702
     31 C         144.1335  136.4024  155.5243 C.3     1  UNL1        0.0566
     32 C         143.3738  135.9319  156.7290 C.3     1  UNL1        0.2599
     33 C         142.9751  134.4908  156.8485 C.3     1  UNL1        0.4340
     34 F         142.5764  133.0497  156.9680 F       1  UNL1       -0.1664
     35 F         143.4468  134.4783  158.2724 F       1  UNL1       -0.1664
     36 F         142.5034  134.5033  155.4247 F       1  UNL1       -0.1664
@<TRIPOS>BOND
     1    31    32    1
     2    32    30    1
     3    30    20    1
     4    20    21   ar
     5    21    22   ar
     6    22    23   ar
     7    23    26    1
     8    26    27    1
     9    26    28    2
    10    26    29    2
    11    23    24   ar
    12    24    25   ar
    13    25     1    1
    14     1     2    2
    15     1     3   am
    16     3     4    1
    17     4     5    1
    18     5     6    1
    19     6     9    1
    20     9    10   ar
    21    10    11   ar
    22    11    12   ar
    23    12    16    1
    24    16    17    1
    25    16    18    1
    26    16    19    1
    27    12    13   ar
    28    13    14   ar
    29    14    15    1
    30     6     7    1
    31     7     8    1
    32    32    33    1
    33    33    34    1
    34    33    35    1
    35    33    36    1
    36    25    20   ar
    37     8     3    1
    38    14     9   ar
@<TRIPOS>MOLECULE
*****
 36 38 0 0 0
SMALL
GASTEIGER

@<TRIPOS>ATOM
      1 C         139.3191  140.8996  157.2412 C.2     1  UNL1        0.2521
      2 O         140.0506  139.8854  156.4128 O.2     1  UNL1       -0.2698
      3 N         139.2891  140.7670  158.7351 N.am    1  UNL1       -0.2725
      4 C         138.5575  141.7813  159.5635 C.3     1  UNL1        0.1152
      5 C         138.5274  141.6487  161.0573 C.3     1  UNL1        0.1137
      6 N         139.2289  140.5018  161.7227 N.pl3   1  UNL1       -0.2880
      7 C         139.9604  139.4876  160.8943 C.3     1  UNL1        0.1137
      8 C         139.9905  139.6202  159.4005 C.3     1  UNL1        0.1152
      9 C         139.1989  140.3692  163.2165 C.ar    1  UNL1        0.1594
     10 N         139.7440  141.4694  164.0783 N.ar    1  UNL1       -0.2269
     11 C         139.7139  141.3368  165.5721 C.ar    1  UNL1        0.1043
     12 C         139.1388  140.1040  166.2042 C.ar    1  UNL1        0.0929
     13 C         138.5937  139.0039  165.3425 C.ar    1  UNL1        0.0380
     14 C         138.6238  139.1365  163.8486 C.ar    1  UNL1        0.1715
     15 F         138.0787  138.0363  162.9869 F       1  UNL1       -0.2012
     16 C         139.1087  139.9714  167.6980 C.3     1  UNL1        0.4201
     17 F         139.0787  139.8388  169.1918 F       1  UNL1       -0.1658
     18 F         140.1378  141.0564  167.8150 F       1  UNL1       -0.1658
     19 F         138.0796  138.8863  167.5810 F       1  UNL1       -0.1658
     20 C         137.1777  141.9152  156.1768 C.ar    1  UNL1        0.1432
     21 C         136.4762  143.0620  155.5115 C.ar    1  UNL1        0.0384
     22 C         137.2148  144.3401  155.2451 C.ar    1  UNL1        0.0215
     23 C         138.6547  144.4714  155.6441 C.ar    1  UNL1        0.1061
     24 C         139.3562  143.3246  156.3095 C.ar    1  UNL1        0.0259
     25 C         138.6176  142.0465  156.5758 C.ar    1  UNL1        0.0887
     26 S         139.3933  145.7496  155.3777 S.O2    1  UNL1        0.0105
     27 C         140.1318  147.0277  155.1113 C.3     1  UNL1        0.1816
     28 O         140.6883  145.0712  155.7134 O.2     1  UNL1       -0.1686
     29 O         138.0982  146.4279  155.0421 O.2     1  UNL1       -0.1686
     30 O         136.4391  140.6371  156.4432 O.3     1  UNL1       -0.4702
     31 C         135.5487  139.4794  154.2946 C.3     1  UNL1        0.0566
     32 C         135.2919  140.2365  155.5638 C.3     1  UNL1        0.2599
     33 C         133.8880  140.5929  155.9535 C.3     1  UNL1        0.4340
     34 F         132.4840  140.9494  156.3432 F       1  UNL1       -0.1664
     35 F         134.1360  140.0608  157.3338 F       1  UNL1       -0.1664
     36 F         133.6399  141.1250  154.5732 F       1  UNL1       -0.1664
@<TRIPOS>BOND
     1    31    32    1
     2    32    30    1
     3    30    20    1
     4    20    21   ar
     5    21    22   ar
     6    22    23   ar
     7    23    26    1
     8    26    27    1
     9    26    28    2
    10    26    29    2
    11    23    24   ar
    12    24    25   ar
    13    25     1    1
    14     1     2    2
    15     1     3   am
    16     3     4    1
    17     4     5    1
    18     5     6    1
    19     6     9    1
    20     9    10   ar
    21    10    11   ar
    22    11    12   ar
    23    12    16    1
    24    16    17    1
    25    16    18    1
    26    16    19    1
    27    12    13   ar
    28    13    14   ar
    29    14    15    1
    30     6     7    1
    31     7     8    1
    32    32    33    1
    33    33    34    1
    34    33    35    1
    35    33    36    1
    36    25    20   ar
    37     8     3    1
    38    14     9   ar
