@<TRIPOS>MOLECULE
*****
 45 51 0 0 0
SMALL
GASTEIGER

@<TRIPOS>ATOM
      1 C         137.7929  142.9388  163.0429 C.3     1  UNL1        0.0932
      2 C         137.5974  141.7870  163.9837 C.3     1  UNL1        0.0286
      3 C         137.6299  140.3802  163.4641 C.3     1  UNL1        0.0193
      4 C         137.8578  140.1253  162.0036 C.3     1  UNL1        0.0700
      5 C         138.0532  141.2771  161.0627 C.3     1  UNL1        0.0193
      6 C         138.0208  142.6838  161.5824 C.3     1  UNL1        0.0286
      7 C         137.8482  140.9135  162.2416 C.3     1  UNL1        0.1562
      8 O         137.8189  142.1854  162.7115 O.3     1  UNL1       -0.3572
      9 N         137.8903  138.7186  161.4839 N.3     1  UNL1       -0.2926
     10 H         137.3064  138.7000  160.6477 H       1  UNL1        0.1236
     11 C         139.1988  138.0863  161.1125 C.3     1  UNL1        0.1152
     12 C         140.3940  138.2576  162.0026 C.ar    1  UNL1        0.0765
     13 C         140.5352  137.4190  163.2383 C.ar    1  UNL1        0.0193
     14 C         141.7303  137.5902  164.1284 C.ar    1  UNL1        0.0411
     15 C         142.7842  138.6001  163.7828 C.ar    1  UNL1        0.1708
     16 C         142.6430  139.4387  162.5472 C.ar    1  UNL1        0.1682
     17 N         141.4479  139.2674  161.6571 N.ar    1  UNL1       -0.2304
     18 N         143.6969  140.4486  162.2017 N.am    1  UNL1       -0.2639
     19 C         144.8921  140.6199  163.0918 C.2     1  UNL1        0.2718
     20 O         145.9460  141.6298  162.7463 O.2     1  UNL1       -0.2707
     21 C         145.0333  139.7813  164.3274 C.3     1  UNL1        0.2898
     22 O         143.9794  138.7714  164.6730 O.3     1  UNL1       -0.4628
     23 H         143.6043  140.9990  161.3907 H       1  UNL1        0.1565
     24 C         137.7604  144.3456  163.5625 C.3     1  UNL1        0.0320
     25 C         138.7992  144.8078  164.5409 C.3     1  UNL1        0.0327
     26 C         140.8274  141.7104  167.0988 C.ar    1  UNL1        0.2249
     27 C         142.2724  141.3789  166.8710 C.ar    1  UNL1        0.0593
     28 C         143.0414  142.0798  165.7906 C.ar    1  UNL1        0.0254
     29 C         142.3653  143.1123  164.9380 C.ar    1  UNL1        0.0990
     30 N         143.1344  143.8132  163.8575 N.ar    1  UNL1       -0.2400
     31 C         142.4583  144.8457  163.0049 C.ar    1  UNL1        0.1281
     32 C         141.0132  145.1772  163.2327 C.ar    1  UNL1        0.1566
     33 F         140.3372  146.2097  162.3801 F       1  UNL1       -0.2028
     34 C         140.2442  144.4763  164.3131 C.ar    1  UNL1        0.0261
     35 C         140.9203  143.4438  165.1657 C.ar    1  UNL1        0.1002
     36 N         140.1513  142.7429  166.2461 N.ar    1  UNL1       -0.2104
     37 O         140.0583  141.0095  168.1792 O.3     1  UNL1       -0.4599
     38 N         141.8778  139.1565  170.1554 N.3     1  UNL1       -0.3172
     39 C         141.1987  140.4407  170.5289 C.3     1  UNL1        0.1239
     40 C         141.2367  141.0987  171.8763 C.3     1  UNL1        0.1614
     41 O         140.4239  142.3572  171.8007 O.3     1  UNL1       -0.3483
     42 C         139.8835  142.4769  170.4065 C.3     1  UNL1        0.1870
     43 C         140.3624  141.2925  169.6205 C.3     1  UNL1        0.2133
     44 H         142.3781  138.7886  170.9646 H       1  UNL1        0.1190
     45 H         142.5378  139.3288  169.3971 H       1  UNL1        0.1190
@<TRIPOS>BOND
     1    38    39    1
     2    39    40    1
     3    40    41    1
     4    41    42    1
     5    42    43    1
     6    43    37    1
     7    37    26    1
     8    26    27   ar
     9    27    28   ar
    10    28    29   ar
    11    29    30   ar
    12    30    31   ar
    13    31    32   ar
    14    32    33    1
    15    32    34   ar
    16    34    25    1
    17    25    24    1
    18    24     1    1
    19     1     2    1
    20     2     3    1
    21     3     4    1
    22     4     9    1
    23     9    11    1
    24    11    12    1
    25    12    13   ar
    26    13    14   ar
    27    14    15   ar
    28    15    16   ar
    29    16    17   ar
    30    16    18    1
    31    18    19   am
    32    19    20    2
    33    19    21    1
    34    21    22    1
    35     4     5    1
    36     5     6    1
    37     4     7    1
    38     7     8    1
    39    34    35   ar
    40    35    36   ar
    41    43    39    1
    42    36    26   ar
    43    35    29   ar
    44     6     1    1
    45     8     1    1
    46    17    12   ar
    47    22    15    1
    48    38    44    1
    49    38    45    1
    50     9    10    1
    51    18    23    1
@<TRIPOS>MOLECULE
*****
 45 51 0 0 0
SMALL
GASTEIGER

@<TRIPOS>ATOM
      1 C         141.7827  138.1714  164.3201 C.3     1  UNL1        0.0932
      2 C         142.4108  138.8684  165.4904 C.3     1  UNL1        0.0286
      3 C         143.6794  139.6475  165.3068 C.3     1  UNL1        0.0193
      4 C         144.3199  139.7295  163.9529 C.3     1  UNL1        0.0700
      5 C         143.6917  139.0324  162.7826 C.3     1  UNL1        0.0193
      6 C         142.4232  138.2534  162.9662 C.3     1  UNL1        0.0286
      7 C         143.6250  139.2907  164.0044 C.3     1  UNL1        0.1562
      8 O         142.4780  138.5863  164.1705 O.3     1  UNL1       -0.3572
      9 N         145.5884  140.5086  163.7693 N.3     1  UNL1       -0.2926
     10 H         146.2772  139.8630  163.3829 H       1  UNL1        0.1236
     11 C         145.6000  141.7278  162.8956 C.3     1  UNL1        0.1152
     12 C         144.4621  142.7035  162.9545 C.ar    1  UNL1        0.0765
     13 C         144.0830  143.3355  164.2610 C.ar    1  UNL1        0.0193
     14 C         142.9453  144.3112  164.3200 C.ar    1  UNL1        0.0411
     15 C         142.1866  144.6549  163.0725 C.ar    1  UNL1        0.1708
     16 C         142.5658  144.0229  161.7660 C.ar    1  UNL1        0.1682
     17 N         143.7035  143.0473  161.7070 N.ar    1  UNL1       -0.2304
     18 N         141.8071  144.3667  160.5185 N.am    1  UNL1       -0.2639
     19 C         140.6693  145.3424  160.5774 C.2     1  UNL1        0.2718
     20 O         139.9107  145.6862  159.3299 O.2     1  UNL1       -0.2707
     21 C         140.2902  145.9744  161.8839 C.3     1  UNL1        0.2898
     22 O         141.0488  145.6306  163.1314 O.3     1  UNL1       -0.4628
     23 H         142.0559  143.9520  159.6610 H       1  UNL1        0.1565
     24 C         140.5140  137.3922  164.5037 C.3     1  UNL1        0.0320
     25 C         139.2294  138.1091  164.7968 C.3     1  UNL1        0.0327
     26 C         139.8153  142.3373  166.2211 C.ar    1  UNL1        0.2249
     27 C         139.3836  143.4860  165.3584 C.ar    1  UNL1        0.0593
     28 C         138.7567  143.2252  164.0209 C.ar    1  UNL1        0.0254
     29 C         138.5615  141.8157  163.5462 C.ar    1  UNL1        0.0990
     30 N         137.9345  141.5550  162.2086 N.ar    1  UNL1       -0.2400
     31 C         137.7392  140.1456  161.7338 C.ar    1  UNL1        0.1281
     32 C         138.1709  138.9969  162.5966 C.ar    1  UNL1        0.1566
     33 F         137.9756  137.5875  162.1218 F       1  UNL1       -0.2028
     34 C         138.7978  139.2577  163.9341 C.ar    1  UNL1        0.0261
     35 C         138.9931  140.6671  164.4089 C.ar    1  UNL1        0.1002
     36 N         139.6200  140.9279  165.7464 N.ar    1  UNL1       -0.2104
     37 O         140.4422  142.5981  167.5587 O.3     1  UNL1       -0.4599
     38 N         139.2679  139.8344  168.8363 N.3     1  UNL1       -0.3172
     39 C         140.7074  140.2557  168.8188 C.3     1  UNL1        0.1239
     40 C         141.8598  139.4806  169.3854 C.3     1  UNL1        0.1614
     41 O         143.1119  140.2720  169.1484 O.3     1  UNL1       -0.3483
     42 C         142.7332  141.5361  168.4352 C.3     1  UNL1        0.1870
     43 C         141.2472  141.5261  168.2315 C.3     1  UNL1        0.2133
     44 H         139.1844  138.9284  169.2975 H       1  UNL1        0.1190
     45 H         138.9232  139.7616  167.8791 H       1  UNL1        0.1190
@<TRIPOS>BOND
     1    38    39    1
     2    39    40    1
     3    40    41    1
     4    41    42    1
     5    42    43    1
     6    43    37    1
     7    37    26    1
     8    26    27   ar
     9    27    28   ar
    10    28    29   ar
    11    29    30   ar
    12    30    31   ar
    13    31    32   ar
    14    32    33    1
    15    32    34   ar
    16    34    25    1
    17    25    24    1
    18    24     1    1
    19     1     2    1
    20     2     3    1
    21     3     4    1
    22     4     9    1
    23     9    11    1
    24    11    12    1
    25    12    13   ar
    26    13    14   ar
    27    14    15   ar
    28    15    16   ar
    29    16    17   ar
    30    16    18    1
    31    18    19   am
    32    19    20    2
    33    19    21    1
    34    21    22    1
    35     4     5    1
    36     5     6    1
    37     4     7    1
    38     7     8    1
    39    34    35   ar
    40    35    36   ar
    41    43    39    1
    42    36    26   ar
    43    35    29   ar
    44     6     1    1
    45     8     1    1
    46    17    12   ar
    47    22    15    1
    48    38    44    1
    49    38    45    1
    50     9    10    1
    51    18    23    1
@<TRIPOS>MOLECULE
*****
 45 51 0 0 0
SMALL
GASTEIGER

@<TRIPOS>ATOM
      1 C         137.9040  142.6553  163.8538 C.3     1  UNL1        0.0932
      2 C         137.7505  142.5289  162.3671 C.3     1  UNL1        0.0286
      3 C         137.7461  141.1727  161.7262 C.3     1  UNL1        0.0193
      4 C         137.8953  139.9430  162.5720 C.3     1  UNL1        0.0700
      5 C         138.0488  140.0694  164.0588 C.3     1  UNL1        0.0193
      6 C         138.0531  141.4256  164.6997 C.3     1  UNL1        0.0286
      7 C         137.9035  140.6646  162.9685 C.3     1  UNL1        0.1562
      8 O         137.9075  141.8909  163.5480 O.3     1  UNL1       -0.3572
      9 N         137.8909  138.5868  161.9311 N.3     1  UNL1       -0.2926
     10 H         137.1495  138.5945  161.2307 H       1  UNL1        0.1236
     11 C         139.1253  138.0755  161.2494 C.3     1  UNL1        0.1152
     12 C         140.4766  138.3498  161.8403 C.ar    1  UNL1        0.0765
     13 C         141.5742  138.9002  160.9786 C.ar    1  UNL1        0.0193
     14 C         142.9254  139.1745  161.5694 C.ar    1  UNL1        0.0411
     15 C         143.1790  138.8983  163.0217 C.ar    1  UNL1        0.1708
     16 C         142.0814  138.3479  163.8833 C.ar    1  UNL1        0.1682
     17 N         140.7302  138.0737  163.2926 N.ar    1  UNL1       -0.2304
     18 N         142.3351  138.0718  165.3358 N.am    1  UNL1       -0.2639
     19 C         143.6863  138.3461  165.9265 C.2     1  UNL1        0.2718
     20 O         143.9399  138.0700  167.3790 O.2     1  UNL1       -0.2707
     21 C         144.7838  138.8965  165.0649 C.3     1  UNL1        0.2898
     22 O         144.5302  139.1726  163.6125 O.3     1  UNL1       -0.4628
     23 H         141.6147  137.7106  165.9013 H       1  UNL1        0.1565
     24 C         137.9083  144.0115  164.4948 C.3     1  UNL1        0.0320
     25 C         139.2086  144.7072  164.7693 C.3     1  UNL1        0.0327
     26 C         142.9824  142.4718  165.7751 C.ar    1  UNL1        0.2249
     27 C         144.0986  142.3968  164.7759 C.ar    1  UNL1        0.0593
     28 C         143.9569  143.0670  163.4415 C.ar    1  UNL1        0.0254
     29 C         142.6990  143.8121  163.1062 C.ar    1  UNL1        0.0990
     30 N         142.5573  144.4822  161.7717 N.ar    1  UNL1       -0.2400
     31 C         141.2994  145.2274  161.4364 C.ar    1  UNL1        0.1281
     32 C         140.1831  145.3023  162.4357 C.ar    1  UNL1        0.1566
     33 F         138.9252  146.0474  162.1004 F       1  UNL1       -0.2028
     34 C         140.3248  144.6322  163.7701 C.ar    1  UNL1        0.0261
     35 C         141.5828  143.8871  164.1054 C.ar    1  UNL1        0.1002
     36 N         141.7245  143.2169  165.4398 N.ar    1  UNL1       -0.2104
     37 O         143.1241  141.8017  167.1096 O.3     1  UNL1       -0.4599
     38 N         140.5269  139.8300  166.9795 N.3     1  UNL1       -0.3172
     39 C         140.7793  140.8887  168.0117 C.3     1  UNL1        0.1239
     40 C         139.8823  141.2270  169.1653 C.3     1  UNL1        0.1614
     41 O         140.5217  142.3424  169.9381 O.3     1  UNL1       -0.3483
     42 C         141.8139  142.6934  169.2621 C.3     1  UNL1        0.1870
     43 C         141.9731  141.7950  168.0715 C.3     1  UNL1        0.2133
     44 H         139.6413  139.3650  167.1789 H       1  UNL1        0.1190
     45 H         141.2829  139.1457  167.0024 H       1  UNL1        0.1190
@<TRIPOS>BOND
     1    38    39    1
     2    39    40    1
     3    40    41    1
     4    41    42    1
     5    42    43    1
     6    43    37    1
     7    37    26    1
     8    26    27   ar
     9    27    28   ar
    10    28    29   ar
    11    29    30   ar
    12    30    31   ar
    13    31    32   ar
    14    32    33    1
    15    32    34   ar
    16    34    25    1
    17    25    24    1
    18    24     1    1
    19     1     2    1
    20     2     3    1
    21     3     4    1
    22     4     9    1
    23     9    11    1
    24    11    12    1
    25    12    13   ar
    26    13    14   ar
    27    14    15   ar
    28    15    16   ar
    29    16    17   ar
    30    16    18    1
    31    18    19   am
    32    19    20    2
    33    19    21    1
    34    21    22    1
    35     4     5    1
    36     5     6    1
    37     4     7    1
    38     7     8    1
    39    34    35   ar
    40    35    36   ar
    41    43    39    1
    42    36    26   ar
    43    35    29   ar
    44     6     1    1
    45     8     1    1
    46    17    12   ar
    47    22    15    1
    48    38    44    1
    49    38    45    1
    50     9    10    1
    51    18    23    1
@<TRIPOS>MOLECULE
*****
 45 51 0 0 0
SMALL
GASTEIGER

@<TRIPOS>ATOM
      1 C         141.9423  138.0920  164.2567 C.3     1  UNL1        0.0932
      2 C         142.7396  138.7599  165.3376 C.3     1  UNL1        0.0286
      3 C         143.9388  139.5880  164.9823 C.3     1  UNL1        0.0193
      4 C         144.3406  139.7483  163.5460 C.3     1  UNL1        0.0700
      5 C         143.5433  139.0804  162.4651 C.3     1  UNL1        0.0193
      6 C         142.3442  138.2523  162.8205 C.3     1  UNL1        0.0286
      7 C         143.6759  139.2847  163.6918 C.3     1  UNL1        0.1562
      8 O         142.5916  138.5359  164.0132 O.3     1  UNL1       -0.3572
      9 N         145.5397  140.5764  163.1906 N.3     1  UNL1       -0.2926
     10 H         145.9050  140.2045  162.3139 H       1  UNL1        0.1236
     11 C         145.4000  142.0586  163.0075 C.3     1  UNL1        0.1152
     12 C         144.4136  142.6022  162.0168 C.ar    1  UNL1        0.0765
     13 C         144.4878  142.1843  160.5781 C.ar    1  UNL1        0.0193
     14 C         143.5014  142.7279  159.5873 C.ar    1  UNL1        0.0411
     15 C         142.4409  143.6894  160.0353 C.ar    1  UNL1        0.1708
     16 C         142.3667  144.1073  161.4740 C.ar    1  UNL1        0.1682
     17 N         143.3530  143.5637  162.4647 N.ar    1  UNL1       -0.2304
     18 N         141.3060  145.0688  161.9219 N.am    1  UNL1       -0.2639
     19 C         140.3197  145.6124  160.9312 C.2     1  UNL1        0.2718
     20 O         139.2591  146.5740  161.3791 O.2     1  UNL1       -0.2707
     21 C         140.3939  145.1945  159.4925 C.3     1  UNL1        0.2898
     22 O         141.4545  144.2330  159.0445 O.3     1  UNL1       -0.4628
     23 H         141.2573  145.3431  162.8662 H       1  UNL1        0.1565
     24 C         140.7431  137.2639  164.6121 C.3     1  UNL1        0.0320
     25 C         139.4419  137.9321  164.9440 C.3     1  UNL1        0.0327
     26 C         140.0500  142.1033  166.5191 C.ar    1  UNL1        0.2249
     27 C         139.5867  143.2829  165.7169 C.ar    1  UNL1        0.0593
     28 C         138.9206  143.0722  164.3896 C.ar    1  UNL1        0.0254
     29 C         138.7179  141.6818  163.8645 C.ar    1  UNL1        0.0990
     30 N         138.0517  141.4711  162.5371 N.ar    1  UNL1       -0.2400
     31 C         137.8490  140.0807  162.0120 C.ar    1  UNL1        0.1281
     32 C         138.3124  138.9010  162.8144 C.ar    1  UNL1        0.1566
     33 F         138.1097  137.5106  162.2893 F       1  UNL1       -0.2028
     34 C         138.9785  139.1118  164.1417 C.ar    1  UNL1        0.0261
     35 C         139.1812  140.5021  164.6668 C.ar    1  UNL1        0.1002
     36 N         139.8473  140.7129  165.9941 N.ar    1  UNL1       -0.2104
     37 O         140.7162  142.3140  167.8466 O.3     1  UNL1       -0.4599
     38 N         142.9625  140.1100  168.7102 N.3     1  UNL1       -0.3172
     39 C         141.6047  140.2731  169.3265 C.3     1  UNL1        0.1239
     40 C         141.0411  139.4517  170.4479 C.3     1  UNL1        0.1614
     41 O         139.6602  139.9573  170.7441 O.3     1  UNL1       -0.3483
     42 C         139.3705  141.0910  169.8056 C.3     1  UNL1        0.1870
     43 C         140.5722  141.2862  168.9295 C.3     1  UNL1        0.2133
     44 H         143.4560  139.3462  169.1721 H       1  UNL1        0.1190
     45 H         143.4927  140.9742  168.8219 H       1  UNL1        0.1190
@<TRIPOS>BOND
     1    38    39    1
     2    39    40    1
     3    40    41    1
     4    41    42    1
     5    42    43    1
     6    43    37    1
     7    37    26    1
     8    26    27   ar
     9    27    28   ar
    10    28    29   ar
    11    29    30   ar
    12    30    31   ar
    13    31    32   ar
    14    32    33    1
    15    32    34   ar
    16    34    25    1
    17    25    24    1
    18    24     1    1
    19     1     2    1
    20     2     3    1
    21     3     4    1
    22     4     9    1
    23     9    11    1
    24    11    12    1
    25    12    13   ar
    26    13    14   ar
    27    14    15   ar
    28    15    16   ar
    29    16    17   ar
    30    16    18    1
    31    18    19   am
    32    19    20    2
    33    19    21    1
    34    21    22    1
    35     4     5    1
    36     5     6    1
    37     4     7    1
    38     7     8    1
    39    34    35   ar
    40    35    36   ar
    41    43    39    1
    42    36    26   ar
    43    35    29   ar
    44     6     1    1
    45     8     1    1
    46    17    12   ar
    47    22    15    1
    48    38    44    1
    49    38    45    1
    50     9    10    1
    51    18    23    1
@<TRIPOS>MOLECULE
*****
 45 51 0 0 0
SMALL
GASTEIGER

@<TRIPOS>ATOM
      1 C         138.3839  140.0481  163.8457 C.3     1  UNL1        0.0932
      2 C         138.3359  140.3830  162.3844 C.3     1  UNL1        0.0286
      3 C         138.0883  141.7962  161.9466 C.3     1  UNL1        0.0193
      4 C         137.8888  142.8744  162.9701 C.3     1  UNL1        0.0700
      5 C         137.9369  142.5394  164.4315 C.3     1  UNL1        0.0193
      6 C         138.1844  141.1263  164.8692 C.3     1  UNL1        0.0286
      7 C         138.0215  142.1146  163.2583 C.3     1  UNL1        0.1562
      8 O         138.2454  140.8367  163.6541 O.3     1  UNL1       -0.3572
      9 N         137.6413  144.2876  162.5324 N.3     1  UNL1       -0.2926
     10 H         136.9117  144.6605  163.1399 H       1  UNL1        0.1236
     11 C         138.7633  145.2830  162.5417 C.3     1  UNL1        0.1152
     12 C         140.1848  144.8118  162.4558 C.ar    1  UNL1        0.0765
     13 C         141.1223  145.0432  163.6036 C.ar    1  UNL1        0.0193
     14 C         142.5438  144.5720  163.5177 C.ar    1  UNL1        0.0411
     15 C         143.0277  143.8694  162.2840 C.ar    1  UNL1        0.1708
     16 C         142.0902  143.6379  161.1362 C.ar    1  UNL1        0.1682
     17 N         140.6687  144.1091  161.2221 N.ar    1  UNL1       -0.2304
     18 N         142.5742  142.9352  159.9025 N.am    1  UNL1       -0.2639
     19 C         143.9956  142.4640  159.8166 C.2     1  UNL1        0.2718
     20 O         144.4796  141.7612  158.5829 O.2     1  UNL1       -0.2707
     21 C         144.9331  142.6954  160.9644 C.3     1  UNL1        0.2898
     22 O         144.4492  143.3981  162.1981 O.3     1  UNL1       -0.4628
     23 H         141.9588  142.7832  159.1491 H       1  UNL1        0.1565
     24 C         138.6315  138.6348  164.2835 C.3     1  UNL1        0.0320
     25 C         139.9079  138.2804  164.9872 C.3     1  UNL1        0.0327
     26 C         141.8921  141.8140  166.9432 C.ar    1  UNL1        0.2249
     27 C         143.2029  142.3224  166.4204 C.ar    1  UNL1        0.0593
     28 C         143.8523  141.6530  165.2457 C.ar    1  UNL1        0.0254
     29 C         143.1909  140.4751  164.5937 C.ar    1  UNL1        0.0990
     30 N         143.8403  139.8056  163.4189 N.ar    1  UNL1       -0.2400
     31 C         143.1789  138.6277  162.7669 C.ar    1  UNL1        0.1281
     32 C         141.8680  138.1193  163.2897 C.ar    1  UNL1        0.1566
     33 F         141.2066  136.9414  162.6377 F       1  UNL1       -0.2028
     34 C         141.2187  138.7888  164.4644 C.ar    1  UNL1        0.0261
     35 C         141.8801  139.9667  165.1164 C.ar    1  UNL1        0.1002
     36 N         141.2307  140.6362  166.2912 N.ar    1  UNL1       -0.2104
     37 O         141.2427  142.4835  168.1180 O.3     1  UNL1       -0.4599
     38 N         139.3265  139.8856  168.5964 N.3     1  UNL1       -0.3172
     39 C         140.1943  140.5431  169.6282 C.3     1  UNL1        0.1239
     40 C         140.3338  140.1219  171.0610 C.3     1  UNL1        0.1614
     41 O         141.3007  141.0557  171.7267 O.3     1  UNL1       -0.3483
     42 C         141.7589  142.0540  170.7052 C.3     1  UNL1        0.1870
     43 C         141.0751  141.7373  169.4083 C.3     1  UNL1        0.2133
     44 H         138.8361  139.0966  169.0174 H       1  UNL1        0.1190
     45 H         139.9065  139.5535  167.8259 H       1  UNL1        0.1190
@<TRIPOS>BOND
     1    38    39    1
     2    39    40    1
     3    40    41    1
     4    41    42    1
     5    42    43    1
     6    43    37    1
     7    37    26    1
     8    26    27   ar
     9    27    28   ar
    10    28    29   ar
    11    29    30   ar
    12    30    31   ar
    13    31    32   ar
    14    32    33    1
    15    32    34   ar
    16    34    25    1
    17    25    24    1
    18    24     1    1
    19     1     2    1
    20     2     3    1
    21     3     4    1
    22     4     9    1
    23     9    11    1
    24    11    12    1
    25    12    13   ar
    26    13    14   ar
    27    14    15   ar
    28    15    16   ar
    29    16    17   ar
    30    16    18    1
    31    18    19   am
    32    19    20    2
    33    19    21    1
    34    21    22    1
    35     4     5    1
    36     5     6    1
    37     4     7    1
    38     7     8    1
    39    34    35   ar
    40    35    36   ar
    41    43    39    1
    42    36    26   ar
    43    35    29   ar
    44     6     1    1
    45     8     1    1
    46    17    12   ar
    47    22    15    1
    48    38    44    1
    49    38    45    1
    50     9    10    1
    51    18    23    1
@<TRIPOS>MOLECULE
*****
 45 51 0 0 0
SMALL
GASTEIGER

@<TRIPOS>ATOM
      1 C         139.9420  138.0457  164.2946 C.3     1  UNL1        0.0932
      2 C         139.7270  137.9140  162.8160 C.3     1  UNL1        0.0286
      3 C         140.9050  137.8079  161.8933 C.3     1  UNL1        0.0193
      4 C         142.2979  137.8335  162.4494 C.3     1  UNL1        0.0700
      5 C         142.5128  137.9652  163.9282 C.3     1  UNL1        0.0193
      6 C         141.3349  138.0713  164.8507 C.3     1  UNL1        0.0286
      7 C         141.6837  137.8947  162.9945 C.3     1  UNL1        0.1562
      8 O         140.6186  137.9906  163.8287 O.3     1  UNL1       -0.3572
      9 N         143.4758  137.7273  161.5269 N.3     1  UNL1       -0.2926
     10 H         143.2654  136.9800  160.8654 H       1  UNL1        0.1236
     11 C         143.9032  138.9151  160.7166 C.3     1  UNL1        0.1152
     12 C         143.7038  140.3011  161.2547 C.ar    1  UNL1        0.0765
     13 C         142.8460  141.2792  160.5081 C.ar    1  UNL1        0.0193
     14 C         142.6466  142.6651  161.0460 C.ar    1  UNL1        0.0411
     15 C         143.3050  143.0729  162.3306 C.ar    1  UNL1        0.1708
     16 C         144.1628  142.0948  163.0772 C.ar    1  UNL1        0.1682
     17 N         144.3622  140.7088  162.5392 N.ar    1  UNL1       -0.2304
     18 N         144.8212  142.5026  164.3619 N.am    1  UNL1       -0.2639
     19 C         144.6218  143.8885  164.8998 C.2     1  UNL1        0.2718
     20 O         145.2802  144.2964  166.1845 O.2     1  UNL1       -0.2707
     21 C         143.7640  144.8666  164.1532 C.3     1  UNL1        0.2898
     22 O         143.1056  144.4588  162.8686 O.3     1  UNL1       -0.4628
     23 H         145.3842  141.8606  164.8519 H       1  UNL1        0.1565
     24 C         138.7640  138.1518  165.2173 C.3     1  UNL1        0.0320
     25 C         138.1263  139.4860  165.4689 C.3     1  UNL1        0.0327
     26 C         138.6432  143.0804  162.8113 C.ar    1  UNL1        0.2249
     27 C         139.4806  144.2375  163.2693 C.ar    1  UNL1        0.0593
     28 C         140.1456  144.1965  164.6131 C.ar    1  UNL1        0.0254
     29 C         139.9733  142.9984  165.4990 C.ar    1  UNL1        0.0990
     30 N         140.6385  142.9574  166.8429 N.ar    1  UNL1       -0.2400
     31 C         140.4662  141.7593  167.7287 C.ar    1  UNL1        0.1281
     32 C         139.6287  140.6021  167.2707 C.ar    1  UNL1        0.1566
     33 F         139.4564  139.4039  168.1566 F       1  UNL1       -0.2028
     34 C         138.9637  140.6431  165.9269 C.ar    1  UNL1        0.0261
     35 C         139.1360  141.8412  165.0410 C.ar    1  UNL1        0.1002
     36 N         138.4709  141.8823  163.6972 N.ar    1  UNL1       -0.2104
     37 O         137.9780  143.1214  161.4674 O.3     1  UNL1       -0.4599
     38 N         137.2098  139.9509  161.3818 N.3     1  UNL1       -0.3172
     39 C         138.0267  140.6880  160.3623 C.3     1  UNL1        0.1239
     40 C         138.6338  140.0971  159.1245 C.3     1  UNL1        0.1614
     41 O         139.3622  141.1894  158.3988 O.3     1  UNL1       -0.3483
     42 C         139.2051  142.4552  159.1881 C.3     1  UNL1        0.1870
     43 C         138.3798  142.1453  160.4017 C.3     1  UNL1        0.2133
     44 H         137.1254  138.9723  161.1069 H       1  UNL1        0.1190
     45 H         136.2813  140.3689  161.4404 H       1  UNL1        0.1190
@<TRIPOS>BOND
     1    38    39    1
     2    39    40    1
     3    40    41    1
     4    41    42    1
     5    42    43    1
     6    43    37    1
     7    37    26    1
     8    26    27   ar
     9    27    28   ar
    10    28    29   ar
    11    29    30   ar
    12    30    31   ar
    13    31    32   ar
    14    32    33    1
    15    32    34   ar
    16    34    25    1
    17    25    24    1
    18    24     1    1
    19     1     2    1
    20     2     3    1
    21     3     4    1
    22     4     9    1
    23     9    11    1
    24    11    12    1
    25    12    13   ar
    26    13    14   ar
    27    14    15   ar
    28    15    16   ar
    29    16    17   ar
    30    16    18    1
    31    18    19   am
    32    19    20    2
    33    19    21    1
    34    21    22    1
    35     4     5    1
    36     5     6    1
    37     4     7    1
    38     7     8    1
    39    34    35   ar
    40    35    36   ar
    41    43    39    1
    42    36    26   ar
    43    35    29   ar
    44     6     1    1
    45     8     1    1
    46    17    12   ar
    47    22    15    1
    48    38    44    1
    49    38    45    1
    50     9    10    1
    51    18    23    1
@<TRIPOS>MOLECULE
*****
 45 51 0 0 0
SMALL
GASTEIGER

@<TRIPOS>ATOM
      1 C         139.1514  142.6010  164.2123 C.3     1  UNL1        0.0932
      2 C         139.3553  142.9700  162.7729 C.3     1  UNL1        0.0286
      3 C         140.5262  143.8190  162.3749 C.3     1  UNL1        0.0193
      4 C         141.4931  144.2989  163.4164 C.3     1  UNL1        0.0700
      5 C         141.2891  143.9298  164.8560 C.3     1  UNL1        0.0193
      6 C         140.1183  143.0808  165.2539 C.3     1  UNL1        0.0286
      7 C         140.8664  143.8359  163.6827 C.3     1  UNL1        0.1562
      8 O         139.8077  143.0682  164.0425 O.3     1  UNL1       -0.3572
      9 N         142.6639  145.1478  163.0185 N.3     1  UNL1       -0.2926
     10 H         142.8069  145.8229  163.7696 H       1  UNL1        0.1236
     11 C         143.9951  144.5109  162.7495 C.3     1  UNL1        0.1152
     12 C         144.1091  143.0175  162.6673 C.ar    1  UNL1        0.0765
     13 C         144.6487  142.2413  163.8320 C.ar    1  UNL1        0.0193
     14 C         144.7627  140.7479  163.7498 C.ar    1  UNL1        0.0411
     15 C         144.3371  140.0307  162.5031 C.ar    1  UNL1        0.1708
     16 C         143.7974  140.8069  161.3385 C.ar    1  UNL1        0.1682
     17 N         143.6834  142.3003  161.4206 N.ar    1  UNL1       -0.2304
     18 N         143.3718  140.0896  160.0917 N.am    1  UNL1       -0.2639
     19 C         143.4858  138.5962  160.0096 C.2     1  UNL1        0.2718
     20 O         143.0602  137.8790  158.7628 O.2     1  UNL1       -0.2707
     21 C         144.0255  137.8201  161.1742 C.3     1  UNL1        0.2898
     22 O         144.4511  138.5373  162.4209 O.3     1  UNL1       -0.4628
     23 H         143.0176  140.5990  159.3273 H       1  UNL1        0.1565
     24 C         137.9805  141.7520  164.6103 C.3     1  UNL1        0.0320
     25 C         138.2069  140.3975  165.2139 C.3     1  UNL1        0.0327
     26 C         142.0567  139.6888  167.4334 C.ar    1  UNL1        0.2249
     27 C         143.0975  138.7754  166.8570 C.ar    1  UNL1        0.0593
     28 C         142.8550  138.0981  165.5408 C.ar    1  UNL1        0.0254
     29 C         141.5718  138.3344  164.8009 C.ar    1  UNL1        0.0990
     30 N         141.3293  137.6571  163.4846 N.ar    1  UNL1       -0.2400
     31 C         140.0460  137.8934  162.7448 C.ar    1  UNL1        0.1281
     32 C         139.0052  138.8069  163.3212 C.ar    1  UNL1        0.1566
     33 F         137.7219  139.0431  162.5814 F       1  UNL1       -0.2028
     34 C         139.2477  139.4841  164.6375 C.ar    1  UNL1        0.0261
     35 C         140.5309  139.2478  165.3773 C.ar    1  UNL1        0.1002
     36 N         140.7734  139.9251  166.6936 N.ar    1  UNL1       -0.2104
     37 O         142.2991  140.3661  168.7497 O.3     1  UNL1       -0.4599
     38 N         140.0229  139.7998  171.0186 N.3     1  UNL1       -0.3172
     39 C         140.2627  141.1034  170.3164 C.3     1  UNL1        0.1239
     40 C         139.4984  142.3756  170.5338 C.3     1  UNL1        0.1614
     41 O         140.0723  143.4222  169.6252 O.3     1  UNL1       -0.3483
     42 C         141.1913  142.7967  168.8463 C.3     1  UNL1        0.1870
     43 C         141.3090  141.3637  169.2735 C.3     1  UNL1        0.2133
     44 H         139.2512  139.9053  171.6771 H       1  UNL1        0.1190
     45 H         140.8657  139.5256  171.5236 H       1  UNL1        0.1190
@<TRIPOS>BOND
     1    38    39    1
     2    39    40    1
     3    40    41    1
     4    41    42    1
     5    42    43    1
     6    43    37    1
     7    37    26    1
     8    26    27   ar
     9    27    28   ar
    10    28    29   ar
    11    29    30   ar
    12    30    31   ar
    13    31    32   ar
    14    32    33    1
    15    32    34   ar
    16    34    25    1
    17    25    24    1
    18    24     1    1
    19     1     2    1
    20     2     3    1
    21     3     4    1
    22     4     9    1
    23     9    11    1
    24    11    12    1
    25    12    13   ar
    26    13    14   ar
    27    14    15   ar
    28    15    16   ar
    29    16    17   ar
    30    16    18    1
    31    18    19   am
    32    19    20    2
    33    19    21    1
    34    21    22    1
    35     4     5    1
    36     5     6    1
    37     4     7    1
    38     7     8    1
    39    34    35   ar
    40    35    36   ar
    41    43    39    1
    42    36    26   ar
    43    35    29   ar
    44     6     1    1
    45     8     1    1
    46    17    12   ar
    47    22    15    1
    48    38    44    1
    49    38    45    1
    50     9    10    1
    51    18    23    1
@<TRIPOS>MOLECULE
*****
 45 51 0 0 0
SMALL
GASTEIGER

@<TRIPOS>ATOM
      1 C         138.2863  140.1328  164.5869 C.3     1  UNL1        0.0932
      2 C         138.8024  141.3458  165.3026 C.3     1  UNL1        0.0286
      3 C         138.6001  142.7089  164.7100 C.3     1  UNL1        0.0193
      4 C         137.8818  142.8589  163.4017 C.3     1  UNL1        0.0700
      5 C         137.3657  141.6458  162.6861 C.3     1  UNL1        0.0193
      6 C         137.5680  140.2828  163.2787 C.3     1  UNL1        0.0286
      7 C         137.9686  142.0914  163.6871 C.3     1  UNL1        0.1562
      8 O         138.1515  140.8589  164.2229 O.3     1  UNL1       -0.3572
      9 N         137.6795  144.2219  162.8091 N.3     1  UNL1       -0.2926
     10 H         137.0150  144.7089  163.4106 H       1  UNL1        0.1236
     11 C         138.8506  145.1408  162.6246 C.3     1  UNL1        0.1152
     12 C         140.0737  144.6610  161.9008 C.ar    1  UNL1        0.0765
     13 C         140.1712  144.8115  160.4116 C.ar    1  UNL1        0.0193
     14 C         141.3942  144.3317  159.6877 C.ar    1  UNL1        0.0411
     15 C         142.5197  143.7014  160.4531 C.ar    1  UNL1        0.1708
     16 C         142.4222  143.5509  161.9424 C.ar    1  UNL1        0.1682
     17 N         141.1992  144.0307  162.6662 N.ar    1  UNL1       -0.2304
     18 N         143.5478  142.9206  162.7078 N.am    1  UNL1       -0.2639
     19 C         144.7709  142.4408  161.9839 C.2     1  UNL1        0.2718
     20 O         145.8965  141.8105  162.7493 O.2     1  UNL1       -0.2707
     21 C         144.8683  142.5913  160.4947 C.3     1  UNL1        0.2898
     22 O         143.7428  143.2216  159.7293 O.3     1  UNL1       -0.4628
     23 H         143.4839  142.8218  163.6852 H       1  UNL1        0.1565
     24 C         138.4886  138.7697  165.1795 C.3     1  UNL1        0.0320
     25 C         139.1448  137.6901  164.3708 C.3     1  UNL1        0.0327
     26 C         143.2555  138.6938  165.9022 C.ar    1  UNL1        0.2249
     27 C         144.3512  139.0400  164.9381 C.ar    1  UNL1        0.0593
     28 C         144.0767  139.0516  163.4635 C.ar    1  UNL1        0.0254
     29 C         142.7064  138.7171  162.9531 C.ar    1  UNL1        0.0990
     30 N         142.4320  138.7287  161.4784 N.ar    1  UNL1       -0.2400
     31 C         141.0618  138.3941  160.9679 C.ar    1  UNL1        0.1281
     32 C         139.9660  138.0479  161.9321 C.ar    1  UNL1        0.1566
     33 F         138.5958  137.7134  161.4216 F       1  UNL1       -0.2028
     34 C         140.2405  138.0363  163.4067 C.ar    1  UNL1        0.0261
     35 C         141.6107  138.3709  163.9172 C.ar    1  UNL1        0.1002
     36 N         141.8852  138.3592  165.3918 N.ar    1  UNL1       -0.2104
     37 O         143.5299  138.6822  167.3769 O.3     1  UNL1       -0.4599
     38 N         142.9782  137.9599  170.5112 N.3     1  UNL1       -0.3172
     39 C         142.3820  139.1086  169.7529 C.3     1  UNL1        0.1239
     40 C         141.4275  140.1270  170.3022 C.3     1  UNL1        0.1614
     41 O         141.0912  141.0884  169.2010 O.3     1  UNL1       -0.3483
     42 C         141.8378  140.6642  167.9712 C.3     1  UNL1        0.1870
     43 C         142.6356  139.4406  168.3123 C.3     1  UNL1        0.2133
     44 H         142.6346  137.9715  171.4715 H       1  UNL1        0.1190
     45 H         143.9947  138.0444  170.5127 H       1  UNL1        0.1190
@<TRIPOS>BOND
     1    38    39    1
     2    39    40    1
     3    40    41    1
     4    41    42    1
     5    42    43    1
     6    43    37    1
     7    37    26    1
     8    26    27   ar
     9    27    28   ar
    10    28    29   ar
    11    29    30   ar
    12    30    31   ar
    13    31    32   ar
    14    32    33    1
    15    32    34   ar
    16    34    25    1
    17    25    24    1
    18    24     1    1
    19     1     2    1
    20     2     3    1
    21     3     4    1
    22     4     9    1
    23     9    11    1
    24    11    12    1
    25    12    13   ar
    26    13    14   ar
    27    14    15   ar
    28    15    16   ar
    29    16    17   ar
    30    16    18    1
    31    18    19   am
    32    19    20    2
    33    19    21    1
    34    21    22    1
    35     4     5    1
    36     5     6    1
    37     4     7    1
    38     7     8    1
    39    34    35   ar
    40    35    36   ar
    41    43    39    1
    42    36    26   ar
    43    35    29   ar
    44     6     1    1
    45     8     1    1
    46    17    12   ar
    47    22    15    1
    48    38    44    1
    49    38    45    1
    50     9    10    1
    51    18    23    1
@<TRIPOS>MOLECULE
*****
 45 51 0 0 0
SMALL
GASTEIGER

@<TRIPOS>ATOM
      1 C         139.1472  138.3260  164.2928 C.3     1  UNL1        0.0932
      2 C         138.8234  139.3259  165.3629 C.3     1  UNL1        0.0286
      3 C         138.0953  140.5899  165.0128 C.3     1  UNL1        0.0193
      4 C         137.6912  140.8538  163.5926 C.3     1  UNL1        0.0700
      5 C         138.0151  139.8537  162.5224 C.3     1  UNL1        0.0193
      6 C         138.7431  138.5899  162.8726 C.3     1  UNL1        0.0286
      7 C         138.0885  140.1470  163.7360 C.3     1  UNL1        0.1562
      8 O         138.7468  139.0042  164.0526 O.3     1  UNL1       -0.3572
      9 N         136.9632  142.1176  163.2424 N.3     1  UNL1       -0.2926
     10 H         136.7012  142.5602  164.1233 H       1  UNL1        0.1236
     11 C         137.6410  143.1688  162.4145 C.3     1  UNL1        0.1152
     12 C         139.0749  143.5221  162.6781 C.ar    1  UNL1        0.0765
     13 C         139.4311  144.3839  163.8531 C.ar    1  UNL1        0.0193
     14 C         140.8648  144.7372  164.1167 C.ar    1  UNL1        0.0411
     15 C         141.9423  144.2288  163.2055 C.ar    1  UNL1        0.1708
     16 C         141.5861  143.3671  162.0305 C.ar    1  UNL1        0.1682
     17 N         140.1524  143.0137  161.7668 N.ar    1  UNL1       -0.2304
     18 N         142.6637  142.8586  161.1192 N.am    1  UNL1       -0.2639
     19 C         144.0974  143.2120  161.3829 C.2     1  UNL1        0.2718
     20 O         145.1750  142.7036  160.4716 O.2     1  UNL1       -0.2707
     21 C         144.4536  144.0738  162.5579 C.3     1  UNL1        0.2898
     22 O         143.3761  144.5822  163.4691 O.3     1  UNL1       -0.4628
     23 H         142.4299  142.2930  160.3481 H       1  UNL1        0.1565
     24 C         139.8753  137.0620  164.6429 C.3     1  UNL1        0.0320
     25 C         141.3750  137.0412  164.6622 C.3     1  UNL1        0.0327
     26 C         142.4024  140.4906  167.3632 C.ar    1  UNL1        0.2249
     27 C         143.1757  141.6587  166.8269 C.ar    1  UNL1        0.0593
     28 C         143.6065  141.6769  165.3903 C.ar    1  UNL1        0.0254
     29 C         143.2640  140.5271  164.4899 C.ar    1  UNL1        0.0990
     30 N         143.6949  140.5453  163.0532 N.ar    1  UNL1       -0.2400
     31 C         143.3524  139.3955  162.1528 C.ar    1  UNL1        0.1281
     32 C         142.5791  138.2274  162.6892 C.ar    1  UNL1        0.1566
     33 F         142.2367  137.0776  161.7889 F       1  UNL1       -0.2028
     34 C         142.1483  138.2092  164.1259 C.ar    1  UNL1        0.0261
     35 C         142.4907  139.3590  165.0262 C.ar    1  UNL1        0.1002
     36 N         142.0599  139.3408  166.4629 N.ar    1  UNL1       -0.2104
     37 O         141.9715  140.4724  168.7999 O.3     1  UNL1       -0.4599
     38 N         140.7413  140.6529  171.8171 N.3     1  UNL1       -0.3172
     39 C         140.5823  141.6816  170.7371 C.3     1  UNL1        0.1239
     40 C         139.8298  142.9739  170.8544 C.3     1  UNL1        0.1614
     41 O         139.9303  143.6896  169.5399 O.3     1  UNL1       -0.3483
     42 C         140.7448  142.8396  168.6104 C.3     1  UNL1        0.1870
     43 C         141.1477  141.5986  169.3503 C.3     1  UNL1        0.2133
     44 H         140.2551  140.9647  172.6579 H       1  UNL1        0.1190
     45 H         141.7322  140.5276  172.0241 H       1  UNL1        0.1190
@<TRIPOS>BOND
     1    38    39    1
     2    39    40    1
     3    40    41    1
     4    41    42    1
     5    42    43    1
     6    43    37    1
     7    37    26    1
     8    26    27   ar
     9    27    28   ar
    10    28    29   ar
    11    29    30   ar
    12    30    31   ar
    13    31    32   ar
    14    32    33    1
    15    32    34   ar
    16    34    25    1
    17    25    24    1
    18    24     1    1
    19     1     2    1
    20     2     3    1
    21     3     4    1
    22     4     9    1
    23     9    11    1
    24    11    12    1
    25    12    13   ar
    26    13    14   ar
    27    14    15   ar
    28    15    16   ar
    29    16    17   ar
    30    16    18    1
    31    18    19   am
    32    19    20    2
    33    19    21    1
    34    21    22    1
    35     4     5    1
    36     5     6    1
    37     4     7    1
    38     7     8    1
    39    34    35   ar
    40    35    36   ar
    41    43    39    1
    42    36    26   ar
    43    35    29   ar
    44     6     1    1
    45     8     1    1
    46    17    12   ar
    47    22    15    1
    48    38    44    1
    49    38    45    1
    50     9    10    1
    51    18    23    1
