@<TRIPOS>MOLECULE
*****
 32 34 0 0 0
SMALL
GASTEIGER

@<TRIPOS>ATOM
      1 N         140.7195  142.2265  165.8613 N.3     1  UNL1       -0.2689
      2 C         142.2010  142.3137  165.6433 C.3     1  UNL1        0.0735
      3 C         142.7545  143.2666  164.6255 C.3     1  UNL1        0.0332
      4 C         141.8265  144.1321  163.8258 C.3     1  UNL1        0.1000
      5 C         140.3450  144.0449  164.0438 C.3     1  UNL1        0.0332
      6 C         139.7915  143.0921  165.0615 C.3     1  UNL1        0.0735
      7 C         143.1447  144.5731  163.2621 C.1     1  UNL1        0.0729
      8 N         144.4630  145.0142  162.6984 N.1     1  UNL1       -0.1959
      9 C         140.1659  141.2737  166.8790 C.3     1  UNL1        0.0992
     10 C         139.6468  137.8980  164.8579 C.ar    1  UNL1        0.1385
     11 C         138.4564  137.3233  165.5669 C.ar    1  UNL1        0.0369
     12 C         137.8359  138.0654  166.7133 C.ar    1  UNL1        0.0028
     13 C         138.4057  139.3822  167.1507 C.ar    1  UNL1       -0.0027
     14 C         139.5960  139.9569  166.4416 C.ar    1  UNL1       -0.0031
     15 C         140.2166  139.2147  165.2952 C.ar    1  UNL1        0.0340
     16 C         141.5702  137.6227  163.1332 C.3     1  UNL1        0.2525
     17 O         140.2673  137.1558  163.7115 O.3     1  UNL1       -0.4714
     18 C         141.3563  145.1509  162.8303 C.3     1  UNL1        0.1037
     19 N         141.7084  145.0003  161.3799 N.am    1  UNL1       -0.2998
     20 C         140.7335  145.4281  160.3232 C.2     1  UNL1        0.2461
     21 O         139.4066  146.0062  160.7168 O.2     1  UNL1       -0.2701
     22 H         142.5793  144.6209  161.1216 H       1  UNL1        0.1498
     23 C         141.0855  145.2775  158.8729 C.ar    1  UNL1        0.0594
     24 C         140.3842  146.1098  157.8406 C.ar    1  UNL1        0.0416
     25 C         140.7363  145.9593  156.3903 C.ar    1  UNL1        0.1419
     26 C         141.7897  144.9766  155.9723 C.ar    1  UNL1        0.0738
     27 C         142.4909  144.1443  157.0046 C.ar    1  UNL1        0.1419
     28 C         142.1389  144.2948  158.4549 C.ar    1  UNL1        0.0416
     29 O         140.0351  146.7915  155.3580 O.3     1  UNL1       -0.4713
     30 C         138.9722  147.7644  155.7746 C.3     1  UNL1        0.2525
     31 O         143.5443  143.1616  156.5866 O.3     1  UNL1       -0.4713
     32 C         144.3134  142.3996  157.6248 C.3     1  UNL1        0.2525
@<TRIPOS>BOND
     1    16    17    1
     2    17    10    1
     3    10    11   ar
     4    11    12   ar
     5    12    13   ar
     6    13    14   ar
     7    14     9    1
     8     9     1    1
     9     1     2    1
    10     2     3    1
    11     3     4    1
    12     4     7    1
    13     7     8    3
    14     4    18    1
    15    18    19    1
    16    19    20   am
    17    20    21    2
    18    20    23    1
    19    23    24   ar
    20    24    25   ar
    21    25    29    1
    22    29    30    1
    23    25    26   ar
    24    26    27   ar
    25    27    31    1
    26    31    32    1
    27    27    28   ar
    28     4     5    1
    29     5     6    1
    30    14    15   ar
    31    15    10   ar
    32     6     1    1
    33    28    23   ar
    34    19    22    1
@<TRIPOS>MOLECULE
*****
 32 34 0 0 0
SMALL
GASTEIGER

@<TRIPOS>ATOM
      1 N         142.5766  143.4112  164.9450 N.3     1  UNL1       -0.2689
      2 C         141.1417  142.9852  165.0428 C.3     1  UNL1        0.0735
      3 C         140.1050  143.6375  164.1768 C.3     1  UNL1        0.0332
      4 C         140.5033  144.7157  163.2130 C.3     1  UNL1        0.1000
      5 C         141.9382  145.1416  163.1152 C.3     1  UNL1        0.0332
      6 C         142.9748  144.4894  163.9811 C.3     1  UNL1        0.0735
      7 C         139.0289  144.6571  162.9436 C.1     1  UNL1        0.0729
      8 N         137.5543  144.5986  162.6743 N.1     1  UNL1       -0.1959
      9 C         143.6132  142.7589  165.8109 C.3     1  UNL1        0.0992
     10 C         142.5614  141.1160  169.2670 C.ar    1  UNL1        0.1385
     11 C         142.3879  139.6832  168.8585 C.ar    1  UNL1        0.0369
     12 C         142.6229  139.2756  167.4342 C.ar    1  UNL1        0.0028
     13 C         143.0313  140.3008  166.4184 C.ar    1  UNL1       -0.0027
     14 C         143.2048  141.7336  166.8268 C.ar    1  UNL1       -0.0031
     15 C         142.9698  142.1412  168.2511 C.ar    1  UNL1        0.0340
     16 C         140.9360  141.8283  171.1646 C.3     1  UNL1        0.2525
     17 O         142.3264  141.5236  170.6913 O.3     1  UNL1       -0.4714
     18 C         140.3895  145.7735  162.1557 C.3     1  UNL1        0.1037
     19 N         139.7733  145.4440  160.8283 N.am    1  UNL1       -0.2998
     20 C         140.6491  145.1172  159.6553 C.2     1  UNL1        0.2461
     21 O         142.1411  145.1199  159.8095 O.2     1  UNL1       -0.2701
     22 H         138.7940  145.4423  160.7271 H       1  UNL1        0.1498
     23 C         140.0329  144.7877  158.3280 C.ar    1  UNL1        0.0594
     24 C         139.3912  143.4494  158.1106 C.ar    1  UNL1        0.0416
     25 C         138.7750  143.1199  156.7833 C.ar    1  UNL1        0.1419
     26 C         138.8005  144.1287  155.6734 C.ar    1  UNL1        0.0738
     27 C         139.4422  145.4670  155.8908 C.ar    1  UNL1        0.1419
     28 C         140.0584  145.7965  157.2181 C.ar    1  UNL1        0.0416
     29 O         138.1334  141.7817  156.5658 O.3     1  UNL1       -0.4713
     30 C         136.6523  141.6866  156.3480 C.3     1  UNL1        0.2525
     31 O         139.4677  146.4757  154.7810 O.3     1  UNL1       -0.4713
     32 C         139.1383  147.9114  155.0647 C.3     1  UNL1        0.2525
@<TRIPOS>BOND
     1    16    17    1
     2    17    10    1
     3    10    11   ar
     4    11    12   ar
     5    12    13   ar
     6    13    14   ar
     7    14     9    1
     8     9     1    1
     9     1     2    1
    10     2     3    1
    11     3     4    1
    12     4     7    1
    13     7     8    3
    14     4    18    1
    15    18    19    1
    16    19    20   am
    17    20    21    2
    18    20    23    1
    19    23    24   ar
    20    24    25   ar
    21    25    29    1
    22    29    30    1
    23    25    26   ar
    24    26    27   ar
    25    27    31    1
    26    31    32    1
    27    27    28   ar
    28     4     5    1
    29     5     6    1
    30    14    15   ar
    31    15    10   ar
    32     6     1    1
    33    28    23   ar
    34    19    22    1
@<TRIPOS>MOLECULE
*****
 32 34 0 0 0
SMALL
GASTEIGER

@<TRIPOS>ATOM
      1 N         140.8204  142.2001  165.8553 N.3     1  UNL1       -0.2689
      2 C         142.2901  142.4442  165.6814 C.3     1  UNL1        0.0735
      3 C         142.7694  143.4529  164.6798 C.3     1  UNL1        0.0332
      4 C         141.7790  144.2173  163.8523 C.3     1  UNL1        0.1000
      5 C         140.3093  143.9731  164.0263 C.3     1  UNL1        0.0332
      6 C         139.8300  142.9645  165.0278 C.3     1  UNL1        0.0735
      7 C         143.0592  144.7968  163.3277 C.1     1  UNL1        0.0729
      8 N         144.3395  145.3763  162.8030 N.1     1  UNL1       -0.1959
      9 C         140.3410  141.1915  166.8568 C.3     1  UNL1        0.0992
     10 C         139.9331  137.7734  164.8819 C.ar    1  UNL1        0.1385
     11 C         138.6461  137.2639  165.4600 C.ar    1  UNL1        0.0369
     12 C         137.9242  138.0636  166.5037 C.ar    1  UNL1        0.0028
     13 C         138.4891  139.3727  166.9693 C.ar    1  UNL1       -0.0027
     14 C         139.7760  139.8822  166.3912 C.ar    1  UNL1       -0.0031
     15 C         140.4980  139.0826  165.3475 C.ar    1  UNL1        0.0340
     16 C         141.2397  137.6596  162.6393 C.3     1  UNL1        0.2525
     17 O         140.6550  136.9737  163.8383 O.3     1  UNL1       -0.4714
     18 C         141.2332  145.1829  162.8426 C.3     1  UNL1        0.1037
     19 N         141.4872  144.9629  161.3807 N.am    1  UNL1       -0.2998
     20 C         140.5240  145.4986  160.3632 C.2     1  UNL1        0.2461
     21 O         139.3070  146.2543  160.8076 O.2     1  UNL1       -0.2701
     22 H         142.2860  144.4668  161.0891 H       1  UNL1        0.1498
     23 C         140.7780  145.2785  158.9013 C.ar    1  UNL1        0.0594
     24 C         141.4930  144.0424  158.4421 C.ar    1  UNL1        0.0416
     25 C         141.7469  143.8223  156.9802 C.ar    1  UNL1        0.1419
     26 C         141.2859  144.8384  155.9776 C.ar    1  UNL1        0.0738
     27 C         140.5710  146.0745  156.4368 C.ar    1  UNL1        0.1419
     28 C         140.3170  146.2946  157.8987 C.ar    1  UNL1        0.0416
     29 O         142.4618  142.5863  156.5209 O.3     1  UNL1       -0.4713
     30 C         143.7787  142.7012  155.8120 C.3     1  UNL1        0.2525
     31 O         140.1100  147.0905  155.4343 O.3     1  UNL1       -0.4713
     32 C         138.7792  147.7614  155.6040 C.3     1  UNL1        0.2525
@<TRIPOS>BOND
     1    16    17    1
     2    17    10    1
     3    10    11   ar
     4    11    12   ar
     5    12    13   ar
     6    13    14   ar
     7    14     9    1
     8     9     1    1
     9     1     2    1
    10     2     3    1
    11     3     4    1
    12     4     7    1
    13     7     8    3
    14     4    18    1
    15    18    19    1
    16    19    20   am
    17    20    21    2
    18    20    23    1
    19    23    24   ar
    20    24    25   ar
    21    25    29    1
    22    29    30    1
    23    25    26   ar
    24    26    27   ar
    25    27    31    1
    26    31    32    1
    27    27    28   ar
    28     4     5    1
    29     5     6    1
    30    14    15   ar
    31    15    10   ar
    32     6     1    1
    33    28    23   ar
    34    19    22    1
@<TRIPOS>MOLECULE
*****
 32 34 0 0 0
SMALL
GASTEIGER

@<TRIPOS>ATOM
      1 N         142.0084  141.8425  165.4794 N.3     1  UNL1       -0.2689
      2 C         140.5201  141.7058  165.3514 C.3     1  UNL1        0.0735
      3 C         139.7507  142.6616  164.4884 C.3     1  UNL1        0.0332
      4 C         140.4695  143.7538  163.7535 C.3     1  UNL1        0.1000
      5 C         141.9578  143.8905  163.8815 C.3     1  UNL1        0.0332
      6 C         142.7272  142.9348  164.7444 C.3     1  UNL1        0.0735
      7 C         139.0611  144.0298  163.3177 C.1     1  UNL1        0.0729
      8 N         137.6525  144.3059  162.8818 N.1     1  UNL1       -0.1959
      9 C         142.7778  140.8868  166.3423 C.3     1  UNL1        0.0992
     10 C         141.5697  141.7788  170.0158 C.ar    1  UNL1        0.1385
     11 C         141.7404  140.4547  170.6997 C.ar    1  UNL1        0.0369
     12 C         142.2569  139.2747  169.9311 C.ar    1  UNL1        0.0028
     13 C         142.6027  139.4187  168.4787 C.ar    1  UNL1       -0.0027
     14 C         142.4320  140.7427  167.7948 C.ar    1  UNL1       -0.0031
     15 C         141.9155  141.9228  168.5634 C.ar    1  UNL1        0.0340
     16 C         140.4762  144.1352  170.0543 C.3     1  UNL1        0.2525
     17 O         141.0531  142.9588  170.7844 O.3     1  UNL1       -0.4714
     18 C         140.6992  144.9420  162.8672 C.3     1  UNL1        0.1037
     19 N         141.1531  144.7448  161.4511 N.am    1  UNL1       -0.2998
     20 C         140.4742  145.4837  160.3362 C.2     1  UNL1        0.2461
     21 O         139.3415  146.4197  160.6372 O.2     1  UNL1       -0.2701
     22 H         141.8966  144.1304  161.2535 H       1  UNL1        0.1498
     23 C         140.9281  145.2865  158.9201 C.ar    1  UNL1        0.0594
     24 C         142.0297  144.3155  158.6140 C.ar    1  UNL1        0.0416
     25 C         142.4836  144.1183  157.1980 C.ar    1  UNL1        0.1419
     26 C         141.8358  144.8921  156.0881 C.ar    1  UNL1        0.0738
     27 C         140.7342  145.8630  156.3942 C.ar    1  UNL1        0.1419
     28 C         140.2803  146.0602  157.8103 C.ar    1  UNL1        0.0416
     29 O         143.5851  143.1474  156.8918 O.3     1  UNL1       -0.4713
     30 C         143.2648  141.8230  156.2646 C.3     1  UNL1        0.2525
     31 O         140.0864  146.6367  155.2844 O.3     1  UNL1       -0.4713
     32 C         139.1062  147.7267  155.6028 C.3     1  UNL1        0.2525
@<TRIPOS>BOND
     1    16    17    1
     2    17    10    1
     3    10    11   ar
     4    11    12   ar
     5    12    13   ar
     6    13    14   ar
     7    14     9    1
     8     9     1    1
     9     1     2    1
    10     2     3    1
    11     3     4    1
    12     4     7    1
    13     7     8    3
    14     4    18    1
    15    18    19    1
    16    19    20   am
    17    20    21    2
    18    20    23    1
    19    23    24   ar
    20    24    25   ar
    21    25    29    1
    22    29    30    1
    23    25    26   ar
    24    26    27   ar
    25    27    31    1
    26    31    32    1
    27    27    28   ar
    28     4     5    1
    29     5     6    1
    30    14    15   ar
    31    15    10   ar
    32     6     1    1
    33    28    23   ar
    34    19    22    1
@<TRIPOS>MOLECULE
*****
 32 34 0 0 0
SMALL
GASTEIGER

@<TRIPOS>ATOM
      1 N         141.5152  141.7392  166.0852 N.3     1  UNL1       -0.2689
      2 C         141.5875  140.6184  167.0794 C.3     1  UNL1        0.0735
      3 C         142.6105  139.5339  166.9138 C.3     1  UNL1        0.0332
      4 C         143.5611  139.5702  165.7541 C.3     1  UNL1        0.1000
      5 C         143.4887  140.6911  164.7599 C.3     1  UNL1        0.0332
      6 C         142.4658  141.7756  164.9254 C.3     1  UNL1        0.0735
      7 C         144.0188  138.3100  166.4266 C.1     1  UNL1        0.0729
      8 N         144.4766  137.0497  167.0991 N.1     1  UNL1       -0.1959
      9 C         140.4923  142.8237  166.2508 C.3     1  UNL1        0.0992
     10 C         137.8907  142.5033  163.2709 C.ar    1  UNL1        0.1385
     11 C         137.8082  143.9289  162.8121 C.ar    1  UNL1        0.0369
     12 C         138.6203  144.9863  163.4995 C.ar    1  UNL1        0.0028
     13 C         139.5150  144.6179  164.6457 C.ar    1  UNL1       -0.0027
     14 C         139.5975  143.1922  165.1045 C.ar    1  UNL1       -0.0031
     15 C         138.7854  142.1349  164.4171 C.ar    1  UNL1        0.0340
     16 C         137.6853  140.1055  162.2918 C.3     1  UNL1        0.2525
     17 O         137.0786  141.4459  162.5835 O.3     1  UNL1       -0.4714
     18 C         144.6706  139.1689  164.8278 C.3     1  UNL1        0.1037
     19 N         144.5613  139.4533  163.3591 N.am    1  UNL1       -0.2998
     20 C         143.5489  138.7234  162.5272 C.2     1  UNL1        0.2461
     21 O         142.6458  137.7091  163.1639 O.2     1  UNL1       -0.2701
     22 H         145.1541  140.1191  162.9411 H       1  UNL1        0.1498
     23 C         143.4396  139.0078  161.0584 C.ar    1  UNL1        0.0594
     24 C         142.8949  137.9625  160.1306 C.ar    1  UNL1        0.0416
     25 C         142.7855  138.2469  158.6619 C.ar    1  UNL1        0.1419
     26 C         143.2209  139.5765  158.1210 C.ar    1  UNL1        0.0738
     27 C         143.7656  140.6218  159.0487 C.ar    1  UNL1        0.1419
     28 C         143.8749  140.3374  160.5175 C.ar    1  UNL1        0.0416
     29 O         142.2409  137.2017  157.7341 O.3     1  UNL1       -0.4713
     30 C         141.4728  137.6103  156.5122 C.3     1  UNL1        0.2525
     31 O         144.2010  141.9514  158.5078 O.3     1  UNL1       -0.4713
     32 C         143.3458  143.1649  158.7227 C.3     1  UNL1        0.2525
@<TRIPOS>BOND
     1    16    17    1
     2    17    10    1
     3    10    11   ar
     4    11    12   ar
     5    12    13   ar
     6    13    14   ar
     7    14     9    1
     8     9     1    1
     9     1     2    1
    10     2     3    1
    11     3     4    1
    12     4     7    1
    13     7     8    3
    14     4    18    1
    15    18    19    1
    16    19    20   am
    17    20    21    2
    18    20    23    1
    19    23    24   ar
    20    24    25   ar
    21    25    29    1
    22    29    30    1
    23    25    26   ar
    24    26    27   ar
    25    27    31    1
    26    31    32    1
    27    27    28   ar
    28     4     5    1
    29     5     6    1
    30    14    15   ar
    31    15    10   ar
    32     6     1    1
    33    28    23   ar
    34    19    22    1
@<TRIPOS>MOLECULE
*****
 32 34 0 0 0
SMALL
GASTEIGER

@<TRIPOS>ATOM
      1 N         140.5456  142.2234  165.8648 N.3     1  UNL1       -0.2689
      2 C         142.0206  142.4767  165.7640 C.3     1  UNL1        0.0735
      3 C         142.5490  143.4315  164.7348 C.3     1  UNL1        0.0332
      4 C         141.6024  144.1331  163.8065 C.3     1  UNL1        0.1000
      5 C         140.1274  143.8798  163.9074 C.3     1  UNL1        0.0332
      6 C         139.5990  142.9251  164.9365 C.3     1  UNL1        0.0735
      7 C         142.9059  144.6981  163.3253 C.1     1  UNL1        0.0729
      8 N         144.2094  145.2631  162.8439 N.1     1  UNL1       -0.1959
      9 C         140.0172  141.2687  166.8939 C.3     1  UNL1        0.0992
     10 C         139.3186  137.9778  164.7886 C.ar    1  UNL1        0.1385
     11 C         138.2428  137.3364  165.6140 C.ar    1  UNL1        0.0369
     12 C         137.7585  138.0056  166.8660 C.ar    1  UNL1        0.0028
     13 C         138.3499  139.3164  167.2926 C.ar    1  UNL1       -0.0027
     14 C         139.4257  139.9578  166.4673 C.ar    1  UNL1       -0.0031
     15 C         139.9100  139.2886  165.2153 C.ar    1  UNL1        0.0340
     16 C         141.2738  137.2108  163.2593 C.3     1  UNL1        0.2525
     17 O         139.8029  137.3085  163.5366 O.3     1  UNL1       -0.4714
     18 C         141.1084  145.0309  162.7111 C.3     1  UNL1        0.1037
     19 N         140.2364  144.4771  161.6235 N.am    1  UNL1       -0.2998
     20 C         140.8219  144.1666  160.2778 C.2     1  UNL1        0.2461
     21 O         142.2793  144.4099  160.0198 O.2     1  UNL1       -0.2701
     22 H         139.2798  144.3174  161.7928 H       1  UNL1        0.1498
     23 C         139.9498  143.6128  159.1902 C.ar    1  UNL1        0.0594
     24 C         139.2178  142.3206  159.4008 C.ar    1  UNL1        0.0416
     25 C         138.3457  141.7668  158.3131 C.ar    1  UNL1        0.1419
     26 C         138.2058  142.5052  157.0150 C.ar    1  UNL1        0.0738
     27 C         138.9378  143.7974  156.8044 C.ar    1  UNL1        0.1419
     28 C         139.8099  144.3512  157.8921 C.ar    1  UNL1        0.0416
     29 O         137.6137  140.4747  158.5237 O.3     1  UNL1       -0.4713
     30 C         137.5639  139.8546  159.8886 C.3     1  UNL1        0.2525
     31 O         138.7979  144.5358  155.5063 O.3     1  UNL1       -0.4713
     32 C         137.4542  144.6496  154.8492 C.3     1  UNL1        0.2525
@<TRIPOS>BOND
     1    16    17    1
     2    17    10    1
     3    10    11   ar
     4    11    12   ar
     5    12    13   ar
     6    13    14   ar
     7    14     9    1
     8     9     1    1
     9     1     2    1
    10     2     3    1
    11     3     4    1
    12     4     7    1
    13     7     8    3
    14     4    18    1
    15    18    19    1
    16    19    20   am
    17    20    21    2
    18    20    23    1
    19    23    24   ar
    20    24    25   ar
    21    25    29    1
    22    29    30    1
    23    25    26   ar
    24    26    27   ar
    25    27    31    1
    26    31    32    1
    27    27    28   ar
    28     4     5    1
    29     5     6    1
    30    14    15   ar
    31    15    10   ar
    32     6     1    1
    33    28    23   ar
    34    19    22    1
@<TRIPOS>MOLECULE
*****
 32 34 0 0 0
SMALL
GASTEIGER

@<TRIPOS>ATOM
      1 N         140.1773  142.5031  165.5985 N.3     1  UNL1       -0.2689
      2 C         139.1106  143.3211  164.9329 C.3     1  UNL1        0.0735
      3 C         139.4785  144.3047  163.8618 C.3     1  UNL1        0.0332
      4 C         140.9130  144.4702  163.4562 C.3     1  UNL1        0.1000
      5 C         141.9798  143.6522  164.1217 C.3     1  UNL1        0.0332
      6 C         141.6120  142.6687  165.1928 C.3     1  UNL1        0.0735
      7 C         140.2666  145.4658  162.5392 C.1     1  UNL1        0.0729
      8 N         139.6200  146.4613  161.6221 N.1     1  UNL1       -0.1959
      9 C         139.8095  141.5196  166.6696 C.3     1  UNL1        0.0992
     10 C         139.2942  138.1414  164.6516 C.ar    1  UNL1        0.1385
     11 C         138.3327  137.4194  165.5483 C.ar    1  UNL1        0.0369
     12 C         137.8634  138.0641  166.8188 C.ar    1  UNL1        0.0028
     13 C         138.3556  139.4308  167.1925 C.ar    1  UNL1       -0.0027
     14 C         139.3172  140.1528  166.2958 C.ar    1  UNL1       -0.0031
     15 C         139.7865  139.5081  165.0254 C.ar    1  UNL1        0.0340
     16 C         141.2204  137.1980  163.1853 C.3     1  UNL1        0.2525
     17 O         139.7635  137.4967  163.3811 O.3     1  UNL1       -0.4714
     18 C         142.1231  144.9815  162.7321 C.3     1  UNL1        0.1037
     19 N         142.2937  144.7043  161.2678 N.am    1  UNL1       -0.2998
     20 C         143.1239  143.5393  160.8167 C.2     1  UNL1        0.2461
     21 O         143.7835  142.6515  161.8299 O.2     1  UNL1       -0.2701
     22 H         141.8608  145.2871  160.6028 H       1  UNL1        0.1498
     23 C         143.2945  143.2622  159.3524 C.ar    1  UNL1        0.0594
     24 C         142.4678  144.0074  158.3469 C.ar    1  UNL1        0.0416
     25 C         142.6384  143.7303  156.8825 C.ar    1  UNL1        0.1419
     26 C         143.6357  142.7079  156.4240 C.ar    1  UNL1        0.0738
     27 C         144.4623  141.9627  157.4295 C.ar    1  UNL1        0.1419
     28 C         144.2918  142.2398  158.8938 C.ar    1  UNL1        0.0416
     29 O         141.8118  144.4754  155.8769 O.3     1  UNL1       -0.4713
     30 C         141.3338  145.8644  156.1804 C.3     1  UNL1        0.2525
     31 O         145.4596  140.9403  156.9709 O.3     1  UNL1       -0.4713
     32 C         145.8241  140.8469  155.5189 C.3     1  UNL1        0.2525
@<TRIPOS>BOND
     1    16    17    1
     2    17    10    1
     3    10    11   ar
     4    11    12   ar
     5    12    13   ar
     6    13    14   ar
     7    14     9    1
     8     9     1    1
     9     1     2    1
    10     2     3    1
    11     3     4    1
    12     4     7    1
    13     7     8    3
    14     4    18    1
    15    18    19    1
    16    19    20   am
    17    20    21    2
    18    20    23    1
    19    23    24   ar
    20    24    25   ar
    21    25    29    1
    22    29    30    1
    23    25    26   ar
    24    26    27   ar
    25    27    31    1
    26    31    32    1
    27    27    28   ar
    28     4     5    1
    29     5     6    1
    30    14    15   ar
    31    15    10   ar
    32     6     1    1
    33    28    23   ar
    34    19    22    1
@<TRIPOS>MOLECULE
*****
 32 34 0 0 0
SMALL
GASTEIGER

@<TRIPOS>ATOM
      1 N         140.0473  142.9232  165.2558 N.3     1  UNL1       -0.2689
      2 C         138.9734  143.7907  164.6691 C.3     1  UNL1        0.0735
      3 C         139.2924  144.7106  163.5279 C.3     1  UNL1        0.0332
      4 C         140.6851  144.7629  162.9735 C.3     1  UNL1        0.1000
      5 C         141.7590  143.8954  163.5602 C.3     1  UNL1        0.0332
      6 C         141.4401  142.9756  164.7013 C.3     1  UNL1        0.0735
      7 C         140.0140  145.7700  162.0873 C.1     1  UNL1        0.0729
      8 N         139.3428  146.7772  161.2012 N.1     1  UNL1       -0.1959
      9 C         139.7284  142.0034  166.3969 C.3     1  UNL1        0.0992
     10 C         142.6274  139.9098  168.1181 C.ar    1  UNL1        0.1385
     11 C         142.9621  140.7935  169.2829 C.ar    1  UNL1        0.0369
     12 C         142.2189  142.0806  169.4858 C.ar    1  UNL1        0.0028
     13 C         141.1410  142.4839  168.5238 C.ar    1  UNL1       -0.0027
     14 C         140.8063  141.6001  167.3590 C.ar    1  UNL1       -0.0031
     15 C         141.5495  140.3131  167.1561 C.ar    1  UNL1        0.0340
     16 C         143.6517  138.1298  166.5267 C.3     1  UNL1        0.2525
     17 O         143.3705  138.6227  167.9152 O.3     1  UNL1       -0.4714
     18 C         141.8449  145.1649  162.1113 C.3     1  UNL1        0.1037
     19 N         142.6226  144.1211  161.3659 N.am    1  UNL1       -0.2998
     20 C         142.2212  143.7398  159.9718 C.2     1  UNL1        0.2461
     21 O         141.0421  144.4023  159.3231 O.2     1  UNL1       -0.2701
     22 H         143.3965  143.6863  161.7916 H       1  UNL1        0.1498
     23 C         142.9989  142.6960  159.2263 C.ar    1  UNL1        0.0594
     24 C         143.8305  143.0851  158.0402 C.ar    1  UNL1        0.0416
     25 C         144.6083  142.0412  157.2947 C.ar    1  UNL1        0.1419
     26 C         144.5543  140.6085  157.7356 C.ar    1  UNL1        0.0738
     27 C         143.7227  140.2195  158.9217 C.ar    1  UNL1        0.1419
     28 C         142.9450  141.2633  159.6672 C.ar    1  UNL1        0.0416
     29 O         145.4399  142.4302  156.1085 O.3     1  UNL1       -0.4713
     30 C         146.9186  142.1787  156.1144 C.3     1  UNL1        0.2525
     31 O         143.6688  138.7867  159.3626 O.3     1  UNL1       -0.4713
     32 C         143.8583  138.4396  160.8095 C.3     1  UNL1        0.2525
@<TRIPOS>BOND
     1    16    17    1
     2    17    10    1
     3    10    11   ar
     4    11    12   ar
     5    12    13   ar
     6    13    14   ar
     7    14     9    1
     8     9     1    1
     9     1     2    1
    10     2     3    1
    11     3     4    1
    12     4     7    1
    13     7     8    3
    14     4    18    1
    15    18    19    1
    16    19    20   am
    17    20    21    2
    18    20    23    1
    19    23    24   ar
    20    24    25   ar
    21    25    29    1
    22    29    30    1
    23    25    26   ar
    24    26    27   ar
    25    27    31    1
    26    31    32    1
    27    27    28   ar
    28     4     5    1
    29     5     6    1
    30    14    15   ar
    31    15    10   ar
    32     6     1    1
    33    28    23   ar
    34    19    22    1
@<TRIPOS>MOLECULE
*****
 32 34 0 0 0
SMALL
GASTEIGER

@<TRIPOS>ATOM
      1 N         143.6455  143.2094  159.9428 N.3     1  UNL1       -0.2689
      2 C         142.4664  143.9065  159.3315 C.3     1  UNL1        0.0735
      3 C         141.4958  144.6446  160.2051 C.3     1  UNL1        0.0332
      4 C         141.7044  144.6857  161.6899 C.3     1  UNL1        0.1000
      5 C         142.8835  143.9887  162.3012 C.3     1  UNL1        0.0332
      6 C         143.8541  143.2506  161.4277 C.3     1  UNL1        0.0735
      7 C         140.4459  145.4946  161.5812 C.1     1  UNL1        0.0729
      8 N         139.1873  146.3035  161.4724 N.1     1  UNL1       -0.1959
      9 C         144.6161  142.4713  159.0693 C.3     1  UNL1        0.0992
     10 C         142.7419  139.1005  158.1337 C.ar    1  UNL1        0.1385
     11 C         143.2589  138.8645  156.7456 C.ar    1  UNL1        0.0369
     12 C         144.2284  139.8308  156.1320 C.ar    1  UNL1        0.0028
     13 C         144.6807  141.0330  156.9065 C.ar    1  UNL1       -0.0027
     14 C         144.1637  141.2690  158.2947 C.ar    1  UNL1       -0.0031
     15 C         143.1943  140.3027  158.9083 C.ar    1  UNL1        0.0340
     16 C         140.8886  138.5738  159.8766 C.3     1  UNL1        0.2525
     17 O         141.7725  138.1342  158.7474 O.3     1  UNL1       -0.4714
     18 C         141.4759  145.0078  163.1370 C.3     1  UNL1        0.1037
     19 N         141.3680  143.9009  164.1437 N.am    1  UNL1       -0.2998
     20 C         140.0889  143.6973  164.9002 C.2     1  UNL1        0.2461
     21 O         138.9177  144.6003  164.6501 O.2     1  UNL1       -0.2701
     22 H         142.1368  143.3082  164.3079 H       1  UNL1        0.1498
     23 C         139.9811  142.5904  165.9069 C.ar    1  UNL1        0.0594
     24 C         139.4037  141.2654  165.5057 C.ar    1  UNL1        0.0416
     25 C         139.2959  140.1586  166.5123 C.ar    1  UNL1        0.1419
     26 C         139.7653  140.3769  167.9202 C.ar    1  UNL1        0.0738
     27 C         140.3427  141.7019  168.3214 C.ar    1  UNL1        0.1419
     28 C         140.4505  142.8087  167.3147 C.ar    1  UNL1        0.0416
     29 O         138.7186  138.8336  166.1112 O.3     1  UNL1       -0.4713
     30 C         138.7715  138.3955  164.6776 C.3     1  UNL1        0.2525
     31 O         140.8121  141.9202  169.7292 O.3     1  UNL1       -0.4713
     32 C         139.9944  142.7525  170.6719 C.3     1  UNL1        0.2525
@<TRIPOS>BOND
     1    16    17    1
     2    17    10    1
     3    10    11   ar
     4    11    12   ar
     5    12    13   ar
     6    13    14   ar
     7    14     9    1
     8     9     1    1
     9     1     2    1
    10     2     3    1
    11     3     4    1
    12     4     7    1
    13     7     8    3
    14     4    18    1
    15    18    19    1
    16    19    20   am
    17    20    21    2
    18    20    23    1
    19    23    24   ar
    20    24    25   ar
    21    25    29    1
    22    29    30    1
    23    25    26   ar
    24    26    27   ar
    25    27    31    1
    26    31    32    1
    27    27    28   ar
    28     4     5    1
    29     5     6    1
    30    14    15   ar
    31    15    10   ar
    32     6     1    1
    33    28    23   ar
    34    19    22    1
