@<TRIPOS>MOLECULE
*****
 33 37 0 0 0
SMALL
GASTEIGER

@<TRIPOS>ATOM
      1 C         140.2420  140.7592  170.4805 C.3     1  UNL1        0.0438
      2 C         140.6544  141.3198  169.1516 C.3     1  UNL1        0.1398
      3 C         141.5379  142.1235  170.0590 C.3     1  UNL1        0.0438
      4 O         141.3738  142.1595  168.1380 O.3     1  UNL1       -0.4826
      5 C         141.0663  142.0007  166.6785 C.ar    1  UNL1        0.1361
      6 C         141.7856  142.8404  165.6648 C.ar    1  UNL1        0.0379
      7 C         141.4782  142.6817  164.2053 C.ar    1  UNL1        0.0178
      8 C         140.4514  141.6832  163.7594 C.ar    1  UNL1        0.0506
      9 C         139.7320  140.8435  164.7730 C.ar    1  UNL1        0.0153
     10 C         140.0395  141.0023  166.2326 C.ar    1  UNL1        0.0369
     11 C         139.3202  140.1626  167.2463 C.3     1  UNL1        0.1581
     12 C         138.9090  139.8938  165.8289 C.3     1  UNL1        0.2351
     13 O         137.8590  138.8227  165.8462 O.2     1  UNL1       -0.4478
     14 C         137.6212  138.4295  167.2740 C.2     1  UNL1        0.2770
     15 N         136.6508  137.3907  167.7526 N.pl3   1  UNL1       -0.3133
     16 N         138.5243  139.2577  168.1394 N.2     1  UNL1       -0.2202
     17 C         139.6277  140.3214  168.7058 C.3     1  UNL1        0.1141
     18 C         139.8284  140.5556  168.4230 C.3     1  UNL1        0.1501
     19 O         139.6174  140.3094  168.7202 O.3     1  UNL1       -0.3532
     20 C         139.8284  140.5556  168.4230 C.3     1  UNL1        0.1501
     21 H         136.0986  136.8970  167.1041 H       1  UNL1        0.1466
     22 H         136.5660  137.2026  168.7152 H       1  UNL1        0.1466
     23 N         140.1439  141.5245  162.2998 N.am    1  UNL1       -0.2779
     24 C         138.9373  142.1930  161.7105 C.2     1  UNL1        0.2855
     25 O         138.0383  143.0203  162.5807 O.2     1  UNL1       -0.2664
     26 H         140.7340  140.9815  161.7287 H       1  UNL1        0.1553
     27 C         138.6299  142.0343  160.2510 C.ar    1  UNL1        0.2173
     28 N         138.0635  140.7428  159.7400 N.ar    1  UNL1       -0.2207
     29 C         137.7560  140.5840  158.2804 C.ar    1  UNL1        0.1089
     30 C         138.0150  141.7168  157.3319 C.ar    1  UNL1        0.0729
     31 BR        137.7075  141.5580  155.8723 Br      1  UNL1       -0.0458
     32 C         138.5815  143.0083  157.8429 C.ar    1  UNL1        0.1089
     33 N         138.8889  143.1670  159.3024 N.ar    1  UNL1       -0.2207
@<TRIPOS>BOND
     1     1     2    1
     2     2     3    1
     3     2     4    1
     4     4     5    1
     5     5     6   ar
     6     6     7   ar
     7     7     8   ar
     8     8    23    1
     9    23    24   am
    10    24    25    2
    11    24    27    1
    12    27    28   ar
    13    28    29   ar
    14    29    30   ar
    15    30    31    1
    16    30    32   ar
    17    32    33   ar
    18     8     9   ar
    19     9    10   ar
    20    10    11    1
    21    11    12    1
    22    12    13    1
    23    13    14    1
    24    14    15    1
    25    14    16    2
    26    11    17    1
    27    17    18    1
    28    18    19    1
    29    19    20    1
    30    17     2    1
    31    10     5   ar
    32    16    11    1
    33    20    17    1
    34    33    27   ar
    35    23    26    1
    36    15    21    1
    37    15    22    1
@<TRIPOS>MOLECULE
*****
 33 37 0 0 0
SMALL
GASTEIGER

@<TRIPOS>ATOM
      1 C         140.0663  141.0844  170.2557 C.3     1  UNL1        0.0438
      2 C         140.6885  141.3562  168.9181 C.3     1  UNL1        0.1398
      3 C         141.5145  142.2651  169.7792 C.3     1  UNL1        0.0438
      4 O         141.5976  141.9437  167.8796 O.3     1  UNL1       -0.4826
      5 C         141.4646  141.5279  166.4446 C.ar    1  UNL1        0.1361
      6 C         142.3737  142.1154  165.4061 C.ar    1  UNL1        0.0379
      7 C         142.2407  141.6996  163.9711 C.ar    1  UNL1        0.0178
      8 C         141.1986  140.6962  163.5745 C.ar    1  UNL1        0.0506
      9 C         140.2895  140.1086  164.6129 C.ar    1  UNL1        0.0153
     10 C         140.4225  140.5245  166.0480 C.ar    1  UNL1        0.0369
     11 C         139.5134  139.9370  167.0865 C.3     1  UNL1        0.1581
     12 C         139.2634  139.4274  165.6980 C.3     1  UNL1        0.2351
     13 O         138.1337  138.4425  165.7621 O.2     1  UNL1       -0.4478
     14 C         137.6857  138.3434  167.1902 C.2     1  UNL1        0.2770
     15 N         136.5793  137.4734  167.7087 N.pl3   1  UNL1       -0.3133
     16 N         138.5384  139.2671  168.0087 N.2     1  UNL1       -0.2202
     17 C         139.6464  140.3528  168.5215 C.3     1  UNL1        0.1141
     18 C         139.9001  140.5168  168.2318 C.3     1  UNL1        0.1501
     19 O         139.6335  140.3445  168.5363 O.3     1  UNL1       -0.3532
     20 C         139.9001  140.5168  168.2318 C.3     1  UNL1        0.1501
     21 H         136.0740  136.8983  167.0897 H       1  UNL1        0.1466
     22 H         136.3583  137.4775  168.6681 H       1  UNL1        0.1466
     23 N         141.0656  140.2803  162.1394 N.am    1  UNL1       -0.2779
     24 C         141.6643  138.9857  161.6751 C.2     1  UNL1        0.2855
     25 O         142.3959  138.1069  162.6459 O.2     1  UNL1       -0.2664
     26 H         140.5854  140.8571  161.5023 H       1  UNL1        0.1553
     27 C         141.5313  138.5698  160.2401 C.ar    1  UNL1        0.2173
     28 N         142.7399  138.1184  159.4750 N.ar    1  UNL1       -0.2207
     29 C         142.6069  137.7025  158.0399 C.ar    1  UNL1        0.1089
     30 C         141.2653  137.7381  157.3700 C.ar    1  UNL1        0.0729
     31 BR        141.1323  137.3223  155.9349 Br      1  UNL1       -0.0458
     32 C         140.0567  138.1897  158.1351 C.ar    1  UNL1        0.1089
     33 N         140.1897  138.6055  159.5702 N.ar    1  UNL1       -0.2207
@<TRIPOS>BOND
     1     1     2    1
     2     2     3    1
     3     2     4    1
     4     4     5    1
     5     5     6   ar
     6     6     7   ar
     7     7     8   ar
     8     8    23    1
     9    23    24   am
    10    24    25    2
    11    24    27    1
    12    27    28   ar
    13    28    29   ar
    14    29    30   ar
    15    30    31    1
    16    30    32   ar
    17    32    33   ar
    18     8     9   ar
    19     9    10   ar
    20    10    11    1
    21    11    12    1
    22    12    13    1
    23    13    14    1
    24    14    15    1
    25    14    16    2
    26    11    17    1
    27    17    18    1
    28    18    19    1
    29    19    20    1
    30    17     2    1
    31    10     5   ar
    32    16    11    1
    33    20    17    1
    34    33    27   ar
    35    23    26    1
    36    15    21    1
    37    15    22    1
@<TRIPOS>MOLECULE
*****
 33 37 0 0 0
SMALL
GASTEIGER

@<TRIPOS>ATOM
      1 C         142.4381  141.0845  170.2603 C.3     1  UNL1        0.0438
      2 C         142.8904  141.7429  168.9906 C.3     1  UNL1        0.1398
      3 C         143.9558  142.2268  169.9290 C.3     1  UNL1        0.0438
      4 O         143.7128  142.5693  168.0469 O.3     1  UNL1       -0.4826
      5 C         143.3126  142.6832  166.6058 C.ar    1  UNL1        0.1361
      6 C         144.1350  143.5096  165.6621 C.ar    1  UNL1        0.0379
      7 C         143.7349  143.6235  164.2210 C.ar    1  UNL1        0.0178
      8 C         142.5123  142.9108  163.7235 C.ar    1  UNL1        0.0506
      9 C         141.6899  142.0843  164.6672 C.ar    1  UNL1        0.0153
     10 C         142.0901  141.9705  166.1084 C.ar    1  UNL1        0.0369
     11 C         141.2677  141.1440  167.0521 C.3     1  UNL1        0.1581
     12 C         140.7462  141.1643  165.6458 C.3     1  UNL1        0.2351
     13 O         139.5081  140.3187  165.5982 O.2     1  UNL1       -0.4478
     14 C         139.2644  139.7759  166.9751 C.2     1  UNL1        0.2770
     15 N         138.1320  138.8803  167.3820 N.pl3   1  UNL1       -0.3133
     16 N         140.3519  140.2859  167.8737 N.2     1  UNL1       -0.2202
     17 C         141.6679  141.0302  168.4932 C.3     1  UNL1        0.1141
     18 C         141.8973  141.2608  168.2299 C.3     1  UNL1        0.1501
     19 O         141.6561  141.0184  168.5067 O.3     1  UNL1       -0.3532
     20 C         141.8973  141.2608  168.2299 C.3     1  UNL1        0.1501
     21 H         137.4641  138.5979  166.7162 H       1  UNL1        0.1466
     22 H         138.0568  138.5748  168.3149 H       1  UNL1        0.1466
     23 N         142.1121  143.0246  162.2824 N.am    1  UNL1       -0.2779
     24 C         141.3987  144.2515  161.7967 C.2     1  UNL1        0.2855
     25 O         141.0854  145.3646  162.7523 O.2     1  UNL1       -0.2664
     26 H         142.3177  142.2941  161.6552 H       1  UNL1        0.1553
     27 C         140.9985  144.3653  160.3556 C.ar    1  UNL1        0.2173
     28 N         141.6842  145.3567  159.4629 N.ar    1  UNL1       -0.2207
     29 C         141.2841  145.4706  158.0217 C.ar    1  UNL1        0.1089
     30 C         140.1982  144.5930  157.4733 C.ar    1  UNL1        0.0729
     31 BR        139.7980  144.7069  156.0322 Br      1  UNL1       -0.0458
     32 C         139.5124  143.6016  158.3661 C.ar    1  UNL1        0.1089
     33 N         139.9126  143.4878  159.8072 N.ar    1  UNL1       -0.2207
@<TRIPOS>BOND
     1     1     2    1
     2     2     3    1
     3     2     4    1
     4     4     5    1
     5     5     6   ar
     6     6     7   ar
     7     7     8   ar
     8     8    23    1
     9    23    24   am
    10    24    25    2
    11    24    27    1
    12    27    28   ar
    13    28    29   ar
    14    29    30   ar
    15    30    31    1
    16    30    32   ar
    17    32    33   ar
    18     8     9   ar
    19     9    10   ar
    20    10    11    1
    21    11    12    1
    22    12    13    1
    23    13    14    1
    24    14    15    1
    25    14    16    2
    26    11    17    1
    27    17    18    1
    28    18    19    1
    29    19    20    1
    30    17     2    1
    31    10     5   ar
    32    16    11    1
    33    20    17    1
    34    33    27   ar
    35    23    26    1
    36    15    21    1
    37    15    22    1
@<TRIPOS>MOLECULE
*****
 33 37 0 0 0
SMALL
GASTEIGER

@<TRIPOS>ATOM
      1 C         139.7292  140.0298  166.9861 C.3     1  UNL1        0.0438
      2 C         139.9147  141.3135  166.2326 C.3     1  UNL1        0.1398
      3 C         140.3157  141.7584  167.6078 C.3     1  UNL1        0.0438
      4 O         140.2394  142.7518  165.9567 O.3     1  UNL1       -0.4826
      5 C         140.0986  143.2992  164.5673 C.ar    1  UNL1        0.1361
      6 C         140.4234  144.7374  164.2914 C.ar    1  UNL1        0.0379
      7 C         140.2826  145.2849  162.9020 C.ar    1  UNL1        0.0178
      8 C         139.8171  144.3942  161.7885 C.ar    1  UNL1        0.0506
      9 C         139.4924  142.9560  162.0644 C.ar    1  UNL1        0.0153
     10 C         139.6332  142.4085  163.4538 C.ar    1  UNL1        0.0369
     11 C         139.3085  140.9703  163.7297 C.3     1  UNL1        0.1581
     12 C         139.1208  141.3742  162.2973 C.3     1  UNL1        0.2351
     13 O         138.6452  140.1727  161.5354 O.2     1  UNL1       -0.4478
     14 C         138.5390  139.0263  162.4968 C.2     1  UNL1        0.2770
     15 N         138.1000  137.6319  162.1611 N.pl3   1  UNL1       -0.3133
     16 N         138.9489  139.5192  163.8530 N.2     1  UNL1       -0.2202
     17 C         139.4492  140.4228  165.1191 C.3     1  UNL1        0.1141
     18 C         139.5398  140.8241  165.0421 C.3     1  UNL1        0.1501
     19 O         139.4446  140.4023  165.1230 O.3     1  UNL1       -0.3532
     20 C         139.5398  140.8241  165.0421 C.3     1  UNL1        0.1501
     21 H         137.8493  137.4039  161.2368 H       1  UNL1        0.1466
     22 H         138.0626  136.9447  162.8651 H       1  UNL1        0.1466
     23 N         139.6764  144.9417  160.3991 N.am    1  UNL1       -0.2779
     24 C         140.8804  145.0532  159.5113 C.2     1  UNL1        0.2855
     25 O         142.2251  144.6171  160.0130 O.2     1  UNL1       -0.2664
     26 H         138.7938  145.2279  160.0698 H       1  UNL1        0.1553
     27 C         140.7396  145.6006  158.1219 C.ar    1  UNL1        0.2173
     28 N         139.6045  146.5236  157.7910 N.ar    1  UNL1       -0.2207
     29 C         139.4637  147.0711  156.4015 C.ar    1  UNL1        0.1089
     30 C         140.4581  146.6957  155.3431 C.ar    1  UNL1        0.0729
     31 BR        140.3173  147.2431  153.9538 Br      1  UNL1       -0.0458
     32 C         141.5933  145.7727  155.6742 C.ar    1  UNL1        0.1089
     33 N         141.7340  145.2252  157.0635 N.ar    1  UNL1       -0.2207
@<TRIPOS>BOND
     1     1     2    1
     2     2     3    1
     3     2     4    1
     4     4     5    1
     5     5     6   ar
     6     6     7   ar
     7     7     8   ar
     8     8    23    1
     9    23    24   am
    10    24    25    2
    11    24    27    1
    12    27    28   ar
    13    28    29   ar
    14    29    30   ar
    15    30    31    1
    16    30    32   ar
    17    32    33   ar
    18     8     9   ar
    19     9    10   ar
    20    10    11    1
    21    11    12    1
    22    12    13    1
    23    13    14    1
    24    14    15    1
    25    14    16    2
    26    11    17    1
    27    17    18    1
    28    18    19    1
    29    19    20    1
    30    17     2    1
    31    10     5   ar
    32    16    11    1
    33    20    17    1
    34    33    27   ar
    35    23    26    1
    36    15    21    1
    37    15    22    1
@<TRIPOS>MOLECULE
*****
 33 37 0 0 0
SMALL
GASTEIGER

@<TRIPOS>ATOM
      1 C         142.0625  141.7017  168.6466 C.3     1  UNL1        0.0438
      2 C         141.2085  142.4589  167.6732 C.3     1  UNL1        0.1398
      3 C         140.5011  142.7907  168.9536 C.3     1  UNL1        0.0438
      4 O         140.1088  143.3314  167.1446 O.3     1  UNL1       -0.4826
      5 C         140.0131  143.6091  165.6737 C.ar    1  UNL1        0.1361
      6 C         138.9134  144.4816  165.1451 C.ar    1  UNL1        0.0379
      7 C         138.8178  144.7592  163.6741 C.ar    1  UNL1        0.0178
      8 C         139.8218  144.1644  162.7317 C.ar    1  UNL1        0.0506
      9 C         140.9215  143.2919  163.2603 C.ar    1  UNL1        0.0153
     10 C         141.0172  143.0142  164.7314 C.ar    1  UNL1        0.0369
     11 C         142.1168  142.1417  165.2600 C.3     1  UNL1        0.1581
     12 C         142.1487  142.3293  163.7720 C.3     1  UNL1        0.2351
     13 O         143.3169  141.5583  163.2326 O.2     1  UNL1       -0.4478
     14 C         144.0070  140.8943  164.3870 C.2     1  UNL1        0.2770
     15 N         145.2250  140.0227  164.3032 N.pl3   1  UNL1       -0.3133
     16 N         143.2653  141.2549  165.6400 N.2     1  UNL1       -0.2202
     17 C         142.2125  141.8641  166.7309 C.3     1  UNL1        0.1141
     18 C         141.9057  142.1075  166.5834 C.3     1  UNL1        0.1501
     19 O         142.2282  141.8516  166.7385 O.3     1  UNL1       -0.3532
     20 C         141.9057  142.1075  166.5834 C.3     1  UNL1        0.1501
     21 H         145.6427  139.8433  163.4300 H       1  UNL1        0.1466
     22 H         145.6066  139.6301  165.1214 H       1  UNL1        0.1466
     23 N         139.7262  144.4420  161.2608 N.am    1  UNL1       -0.2779
     24 C         140.9667  144.7384  160.4712 C.2     1  UNL1        0.2855
     25 O         142.3029  144.7571  161.1527 O.2     1  UNL1       -0.2664
     26 H         138.8492  144.4297  160.8135 H       1  UNL1        0.1553
     27 C         140.8711  145.0160  159.0003 C.ar    1  UNL1        0.2173
     28 N         139.7157  144.4783  158.2092 N.ar    1  UNL1       -0.2207
     29 C         139.6200  144.7560  156.7381 C.ar    1  UNL1        0.1089
     30 C         140.6797  145.5713  156.0583 C.ar    1  UNL1        0.0729
     31 BR        140.5840  145.8490  154.5874 Br      1  UNL1       -0.0458
     32 C         141.8351  146.1091  156.8495 C.ar    1  UNL1        0.1089
     33 N         141.9308  145.8314  158.3204 N.ar    1  UNL1       -0.2207
@<TRIPOS>BOND
     1     1     2    1
     2     2     3    1
     3     2     4    1
     4     4     5    1
     5     5     6   ar
     6     6     7   ar
     7     7     8   ar
     8     8    23    1
     9    23    24   am
    10    24    25    2
    11    24    27    1
    12    27    28   ar
    13    28    29   ar
    14    29    30   ar
    15    30    31    1
    16    30    32   ar
    17    32    33   ar
    18     8     9   ar
    19     9    10   ar
    20    10    11    1
    21    11    12    1
    22    12    13    1
    23    13    14    1
    24    14    15    1
    25    14    16    2
    26    11    17    1
    27    17    18    1
    28    18    19    1
    29    19    20    1
    30    17     2    1
    31    10     5   ar
    32    16    11    1
    33    20    17    1
    34    33    27   ar
    35    23    26    1
    36    15    21    1
    37    15    22    1
@<TRIPOS>MOLECULE
*****
 33 37 0 0 0
SMALL
GASTEIGER

@<TRIPOS>ATOM
      1 C         140.0188  141.4333  169.9227 C.3     1  UNL1        0.0438
      2 C         139.6116  140.4985  168.8224 C.3     1  UNL1        0.1398
      3 C         138.5775  140.1542  169.8529 C.3     1  UNL1        0.0438
      4 O         138.8452  139.4442  168.0801 O.3     1  UNL1       -0.4826
      5 C         139.2544  139.0588  166.6895 C.ar    1  UNL1        0.1361
      6 C         138.4880  138.0044  165.9472 C.ar    1  UNL1        0.0379
      7 C         138.8972  137.6191  164.5565 C.ar    1  UNL1        0.0178
      8 C         140.0729  138.2880  163.9081 C.ar    1  UNL1        0.0506
      9 C         140.8393  139.3424  164.6504 C.ar    1  UNL1        0.0153
     10 C         140.4300  139.7277  166.0411 C.ar    1  UNL1        0.0369
     11 C         141.1964  140.7821  166.7834 C.3     1  UNL1        0.1581
     12 C         141.7207  140.5028  165.4060 C.3     1  UNL1        0.2351
     13 O         142.9025  141.3959  165.1699 O.2     1  UNL1       -0.4478
     14 C         143.1087  142.2271  166.4014 C.2     1  UNL1        0.2770
     15 N         144.1810  143.2569  166.6007 N.pl3   1  UNL1       -0.3133
     16 N         142.0543  141.8477  167.3986 N.2     1  UNL1       -0.2202
     17 C         140.7872  141.1674  168.1741 C.3     1  UNL1        0.1141
     18 C         140.5734  140.8733  167.9670 C.3     1  UNL1        0.1501
     19 O         140.7982  141.1825  168.1847 O.3     1  UNL1       -0.3532
     20 C         140.5734  140.8733  167.9670 C.3     1  UNL1        0.1501
     21 H         144.8309  143.4361  165.8831 H       1  UNL1        0.1466
     22 H         144.2350  143.7535  167.4490 H       1  UNL1        0.1466
     23 N         140.4821  137.9027  162.5174 N.am    1  UNL1       -0.2779
     24 C         140.1688  138.8101  161.3648 C.2     1  UNL1        0.2855
     25 O         139.4463  140.1028  161.6029 O.2     1  UNL1       -0.2664
     26 H         140.9563  137.0542  162.3611 H       1  UNL1        0.1553
     27 C         140.5780  138.4247  159.9741 C.ar    1  UNL1        0.2173
     28 N         139.5570  138.3843  158.8760 N.ar    1  UNL1       -0.2207
     29 C         139.9662  137.9990  157.4852 C.ar    1  UNL1        0.1089
     30 C         141.3964  137.6539  157.1927 C.ar    1  UNL1        0.0729
     31 BR        141.8056  137.2685  155.8020 Br      1  UNL1       -0.0458
     32 C         142.4173  137.6943  158.2909 C.ar    1  UNL1        0.1089
     33 N         142.0081  138.0797  159.6816 N.ar    1  UNL1       -0.2207
@<TRIPOS>BOND
     1     1     2    1
     2     2     3    1
     3     2     4    1
     4     4     5    1
     5     5     6   ar
     6     6     7   ar
     7     7     8   ar
     8     8    23    1
     9    23    24   am
    10    24    25    2
    11    24    27    1
    12    27    28   ar
    13    28    29   ar
    14    29    30   ar
    15    30    31    1
    16    30    32   ar
    17    32    33   ar
    18     8     9   ar
    19     9    10   ar
    20    10    11    1
    21    11    12    1
    22    12    13    1
    23    13    14    1
    24    14    15    1
    25    14    16    2
    26    11    17    1
    27    17    18    1
    28    18    19    1
    29    19    20    1
    30    17     2    1
    31    10     5   ar
    32    16    11    1
    33    20    17    1
    34    33    27   ar
    35    23    26    1
    36    15    21    1
    37    15    22    1
@<TRIPOS>MOLECULE
*****
 33 37 0 0 0
SMALL
GASTEIGER

@<TRIPOS>ATOM
      1 C         137.7353  143.0442  164.5196 C.3     1  UNL1        0.0438
      2 C         137.9323  142.8244  163.0488 C.3     1  UNL1        0.1398
      3 C         137.6429  144.2962  163.0559 C.3     1  UNL1        0.0438
      4 O         138.0288  143.1158  161.5805 O.3     1  UNL1       -0.4826
      5 C         138.3462  142.0118  160.6161 C.ar    1  UNL1        0.1361
      6 C         138.4427  142.3032  159.1478 C.ar    1  UNL1        0.0379
      7 C         138.7601  141.1991  158.1833 C.ar    1  UNL1        0.0178
      8 C         138.9811  139.8036  158.6871 C.ar    1  UNL1        0.0506
      9 C         138.8846  139.5122  160.1553 C.ar    1  UNL1        0.0153
     10 C         138.5672  140.6163  161.1198 C.ar    1  UNL1        0.0369
     11 C         138.4707  140.3249  162.5881 C.3     1  UNL1        0.1581
     12 C         138.7939  139.1250  161.7479 C.3     1  UNL1        0.2351
     13 O         138.9302  137.9428  162.6611 O.2     1  UNL1       -0.4478
     14 C         138.6913  138.4120  164.0656 C.2     1  UNL1        0.2770
     15 N         138.7296  137.5588  165.2987 N.pl3   1  UNL1       -0.3133
     16 N         138.4072  139.8842  164.0205 N.2     1  UNL1       -0.2202
     17 C         138.1533  141.4289  163.5526 C.3     1  UNL1        0.1141
     18 C         138.1802  141.5102  163.1429 C.3     1  UNL1        0.1501
     19 O         138.1519  141.4248  163.5735 O.3     1  UNL1       -0.3532
     20 C         138.1802  141.5102  163.1429 C.3     1  UNL1        0.1501
     21 H         138.9259  136.5968  165.2258 H       1  UNL1        0.1466
     22 H         138.5584  137.9608  166.1809 H       1  UNL1        0.1466
     23 N         139.2985  138.6996  157.7226 N.am    1  UNL1       -0.2779
     24 C         140.7205  138.2679  157.5183 C.2     1  UNL1        0.2855
     25 O         141.8250  138.9403  158.2785 O.2     1  UNL1       -0.2664
     26 H         138.5736  138.2582  157.2236 H       1  UNL1        0.1553
     27 C         141.0379  137.1638  156.5538 C.ar    1  UNL1        0.2173
     28 N         142.1607  136.2129  156.8455 N.ar    1  UNL1       -0.2207
     29 C         142.4782  135.1088  155.8810 C.ar    1  UNL1        0.1089
     30 C         141.6728  134.9557  154.6248 C.ar    1  UNL1        0.0729
     31 BR        141.9903  133.8516  153.6603 Br      1  UNL1       -0.0458
     32 C         140.5501  135.9067  154.3331 C.ar    1  UNL1        0.1089
     33 N         140.2326  137.0107  155.2976 N.ar    1  UNL1       -0.2207
@<TRIPOS>BOND
     1     1     2    1
     2     2     3    1
     3     2     4    1
     4     4     5    1
     5     5     6   ar
     6     6     7   ar
     7     7     8   ar
     8     8    23    1
     9    23    24   am
    10    24    25    2
    11    24    27    1
    12    27    28   ar
    13    28    29   ar
    14    29    30   ar
    15    30    31    1
    16    30    32   ar
    17    32    33   ar
    18     8     9   ar
    19     9    10   ar
    20    10    11    1
    21    11    12    1
    22    12    13    1
    23    13    14    1
    24    14    15    1
    25    14    16    2
    26    11    17    1
    27    17    18    1
    28    18    19    1
    29    19    20    1
    30    17     2    1
    31    10     5   ar
    32    16    11    1
    33    20    17    1
    34    33    27   ar
    35    23    26    1
    36    15    21    1
    37    15    22    1
@<TRIPOS>MOLECULE
*****
 33 37 0 0 0
SMALL
GASTEIGER

@<TRIPOS>ATOM
      1 C         137.7190  139.0728  166.7424 C.3     1  UNL1        0.0438
      2 C         138.7143  138.6198  165.7156 C.3     1  UNL1        0.1398
      3 C         138.2173  137.2904  166.2010 C.3     1  UNL1        0.0438
      4 O         139.5370  137.7050  164.8574 O.3     1  UNL1       -0.4826
      5 C         140.5110  138.2770  163.8705 C.ar    1  UNL1        0.1361
      6 C         141.3336  137.3623  163.0123 C.ar    1  UNL1        0.0379
      7 C         142.3076  137.9342  162.0254 C.ar    1  UNL1        0.0178
      8 C         142.4590  139.4211  161.8965 C.ar    1  UNL1        0.0506
      9 C         141.6363  140.3358  162.7547 C.ar    1  UNL1        0.0153
     10 C         140.6623  139.7638  163.7417 C.ar    1  UNL1        0.0369
     11 C         139.8396  140.6785  164.5999 C.3     1  UNL1        0.1581
     12 C         140.7678  141.3924  163.6623 C.3     1  UNL1        0.2351
     13 O         140.5912  142.8676  163.8690 O.2     1  UNL1       -0.4478
     14 C         139.5539  143.0655  164.9343 C.2     1  UNL1        0.2770
     15 N         139.0666  144.3846  165.4563 N.pl3   1  UNL1       -0.3133
     16 N         139.0894  141.7125  165.3860 N.2     1  UNL1       -0.2202
     17 C         138.8656  140.1065  165.5868 C.3     1  UNL1        0.1141
     18 C         139.0952  139.8513  165.3474 C.3     1  UNL1        0.1501
     19 O         138.8539  140.1196  165.5991 O.3     1  UNL1       -0.3532
     20 C         139.0952  139.8513  165.3474 C.3     1  UNL1        0.1501
     21 H         139.4343  145.2232  165.0947 H       1  UNL1        0.1466
     22 H         138.3791  144.4117  166.1605 H       1  UNL1        0.1466
     23 N         143.4329  139.9931  160.9096 N.am    1  UNL1       -0.2779
     24 C         143.0460  140.1292  159.4667 C.2     1  UNL1        0.2855
     25 O         141.6850  139.6933  159.0109 O.2     1  UNL1       -0.2664
     26 H         144.3262  140.2791  161.2088 H       1  UNL1        0.1553
     27 C         144.0200  140.7012  158.4797 C.ar    1  UNL1        0.2173
     28 N         144.3766  139.9289  157.2443 N.ar    1  UNL1       -0.2207
     29 C         145.3506  140.5009  156.2573 C.ar    1  UNL1        0.1089
     30 C         145.9680  141.8452  156.5057 C.ar    1  UNL1        0.0729
     31 BR        146.9420  142.4172  155.5188 Br      1  UNL1       -0.0458
     32 C         145.6113  142.6175  157.7413 C.ar    1  UNL1        0.1089
     33 N         144.6373  142.0455  158.7282 N.ar    1  UNL1       -0.2207
@<TRIPOS>BOND
     1     1     2    1
     2     2     3    1
     3     2     4    1
     4     4     5    1
     5     5     6   ar
     6     6     7   ar
     7     7     8   ar
     8     8    23    1
     9    23    24   am
    10    24    25    2
    11    24    27    1
    12    27    28   ar
    13    28    29   ar
    14    29    30   ar
    15    30    31    1
    16    30    32   ar
    17    32    33   ar
    18     8     9   ar
    19     9    10   ar
    20    10    11    1
    21    11    12    1
    22    12    13    1
    23    13    14    1
    24    14    15    1
    25    14    16    2
    26    11    17    1
    27    17    18    1
    28    18    19    1
    29    19    20    1
    30    17     2    1
    31    10     5   ar
    32    16    11    1
    33    20    17    1
    34    33    27   ar
    35    23    26    1
    36    15    21    1
    37    15    22    1
@<TRIPOS>MOLECULE
*****
 33 37 0 0 0
SMALL
GASTEIGER

@<TRIPOS>ATOM
      1 C         143.1180  142.2764  167.6272 C.3     1  UNL1        0.0438
      2 C         142.7406  141.1029  166.7723 C.3     1  UNL1        0.1398
      3 C         142.6265  140.4817  168.1328 C.3     1  UNL1        0.0438
      4 O         142.3236  139.7137  166.3900 O.3     1  UNL1       -0.4826
      5 C         142.1518  139.3533  164.9442 C.ar    1  UNL1        0.1361
      6 C         141.7348  137.9641  164.5619 C.ar    1  UNL1        0.0379
      7 C         141.5630  137.6037  163.1160 C.ar    1  UNL1        0.0178
      8 C         141.8083  138.6326  162.0524 C.ar    1  UNL1        0.0506
      9 C         142.2253  140.0218  162.4346 C.ar    1  UNL1        0.0153
     10 C         142.3971  140.3822  163.8806 C.ar    1  UNL1        0.0369
     11 C         142.8142  141.7714  164.2629 C.3     1  UNL1        0.1581
     12 C         142.6833  141.5590  162.7837 C.3     1  UNL1        0.2351
     13 O         143.0216  142.8497  162.0983 O.2     1  UNL1       -0.4478
     14 C         143.3616  143.8598  163.1538 C.2     1  UNL1        0.2770
     15 N         143.7598  145.2858  162.9137 N.pl3   1  UNL1       -0.3133
     16 N         143.2334  143.1934  164.4916 N.2     1  UNL1       -0.2202
     17 C         142.9859  142.1318  165.7087 C.3     1  UNL1        0.1141
     18 C         142.8696  141.7442  165.6021 C.3     1  UNL1        0.1501
     19 O         142.9919  142.1516  165.7142 O.3     1  UNL1       -0.3532
     20 C         142.8696  141.7442  165.6021 C.3     1  UNL1        0.1501
     21 H         143.8162  145.6331  161.9942 H       1  UNL1        0.1466
     22 H         143.9649  145.8746  163.6756 H       1  UNL1        0.1466
     23 N         141.6365  138.2722  160.6065 N.am    1  UNL1       -0.2779
     24 C         142.8177  138.2957  159.6822 C.2     1  UNL1        0.2855
     25 O         144.1707  138.6796  160.2039 O.2     1  UNL1       -0.2664
     26 H         140.7485  138.0202  160.2641 H       1  UNL1        0.1553
     27 C         142.6460  137.9353  158.2363 C.ar    1  UNL1        0.2173
     28 N         143.1054  136.5976  157.7372 N.ar    1  UNL1       -0.2207
     29 C         142.9337  136.2371  156.2912 C.ar    1  UNL1        0.1089
     30 C         142.3024  137.2145  155.3445 C.ar    1  UNL1        0.0729
     31 BR        142.1307  136.8541  153.8987 Br      1  UNL1       -0.0458
     32 C         141.8429  138.5523  155.8438 C.ar    1  UNL1        0.1089
     33 N         142.0147  138.9127  157.2896 N.ar    1  UNL1       -0.2207
@<TRIPOS>BOND
     1     1     2    1
     2     2     3    1
     3     2     4    1
     4     4     5    1
     5     5     6   ar
     6     6     7   ar
     7     7     8   ar
     8     8    23    1
     9    23    24   am
    10    24    25    2
    11    24    27    1
    12    27    28   ar
    13    28    29   ar
    14    29    30   ar
    15    30    31    1
    16    30    32   ar
    17    32    33   ar
    18     8     9   ar
    19     9    10   ar
    20    10    11    1
    21    11    12    1
    22    12    13    1
    23    13    14    1
    24    14    15    1
    25    14    16    2
    26    11    17    1
    27    17    18    1
    28    18    19    1
    29    19    20    1
    30    17     2    1
    31    10     5   ar
    32    16    11    1
    33    20    17    1
    34    33    27   ar
    35    23    26    1
    36    15    21    1
    37    15    22    1
