@<TRIPOS>MOLECULE
*****
 25 28 0 0 0
SMALL
GASTEIGER

@<TRIPOS>ATOM
      1 C         142.2498  140.2718  170.1308 C.ar    1  UNL1        0.1366
      2 C         141.3107  141.0127  171.0358 C.ar    1  UNL1        0.0367
      3 C         140.6012  142.0508  170.2180 C.ar    1  UNL1        0.0769
      4 CL        139.5718  143.0184  170.7221 Cl      1  UNL1       -0.0806
      5 C         141.1019  141.9515  168.8074 C.ar    1  UNL1        0.0936
      6 C         140.7616  142.7202  167.5652 C.ar    1  UNL1        0.0221
      7 C         141.4402  142.3894  166.2691 C.ar    1  UNL1        0.0284
      8 C         142.4591  141.2899  166.2152 C.ar    1  UNL1        0.1210
      9 N         142.7994  140.5212  167.4574 N.ar    1  UNL1       -0.1634
     10 N         142.1208  140.8520  168.7536 N.ar    1  UNL1       -0.2244
     11 C         141.0999  143.1581  165.0267 C.ar    1  UNL1        0.0305
     12 C         139.8723  143.9938  164.8155 C.ar    1  UNL1        0.0038
     13 C         139.9412  144.5783  163.4357 C.ar    1  UNL1       -0.0038
     14 C         141.2114  144.1038  162.7942 C.ar    1  UNL1        0.0060
     15 S         141.9275  143.2261  163.7775 S.2     1  UNL1       -0.0915
     16 C         141.5519  144.5322  161.3976 C.3     1  UNL1        0.0497
     17 C         140.6221  145.4352  160.6425 C.3     1  UNL1        0.0741
     18 N         139.3519  145.9097  161.2839 N.3     1  UNL1       -0.2934
     19 C         139.0115  145.4812  162.6806 C.3     1  UNL1        0.0958
     20 H         138.5862  145.5993  160.6858 H       1  UNL1        0.1236
     21 N         144.1511  139.3452  171.6397 N.am    1  UNL1       -0.3241
     22 C         143.1585  139.1480  170.5324 C.2     1  UNL1        0.2606
     23 O         143.0748  137.8270  169.8269 O.2     1  UNL1       -0.2687
     24 H         144.7475  138.6076  171.9033 H       1  UNL1        0.1453
     25 H         144.2061  140.2122  172.1029 H       1  UNL1        0.1453
@<TRIPOS>BOND
     1    21    22   am
     2    22    23    2
     3    22     1    1
     4     1     2   ar
     5     2     3   ar
     6     3     4    1
     7     3     5   ar
     8     5     6   ar
     9     6     7   ar
    10     7    11    1
    11    11    12   ar
    12    12    13   ar
    13    13    14   ar
    14    14    15   ar
    15    14    16    1
    16    16    17    1
    17    17    18    1
    18    18    19    1
    19     7     8   ar
    20     8     9   ar
    21     9    10   ar
    22    10     1   ar
    23    10     5   ar
    24    15    11   ar
    25    19    13    1
    26    21    24    1
    27    21    25    1
    28    18    20    1
@<TRIPOS>MOLECULE
*****
 25 28 0 0 0
SMALL
GASTEIGER

@<TRIPOS>ATOM
      1 C         141.5210  140.2024  169.5066 C.ar    1  UNL1        0.1366
      2 C         142.4266  139.1170  169.0048 C.ar    1  UNL1        0.0367
      3 C         142.6703  139.3552  167.5440 C.ar    1  UNL1        0.0769
      4 CL        143.5198  138.5093  166.6425 Cl      1  UNL1       -0.0806
      5 C         141.9153  140.5877  167.1430 C.ar    1  UNL1        0.0936
      6 C         141.7829  141.3009  165.8301 C.ar    1  UNL1        0.0221
      7 C         140.9401  142.5377  165.7302 C.ar    1  UNL1        0.0284
      8 C         140.2298  143.0614  166.9432 C.ar    1  UNL1        0.1210
      9 N         140.3622  142.3482  168.2561 N.ar    1  UNL1       -0.1634
     10 N         141.2050  141.1114  168.3560 N.ar    1  UNL1       -0.2244
     11 C         140.8077  143.2510  164.4172 C.ar    1  UNL1        0.0305
     12 C         139.9830  144.4771  164.1592 C.ar    1  UNL1        0.0038
     13 C         140.1423  144.8472  162.7143 C.ar    1  UNL1       -0.0038
     14 C         141.0655  143.8498  162.0794 C.ar    1  UNL1        0.0060
     15 S         141.4767  142.8634  163.1318 S.2     1  UNL1       -0.0915
     16 C         141.4123  143.9689  160.6249 C.3     1  UNL1        0.0497
     17 C         140.8360  145.0852  159.8053 C.3     1  UNL1        0.0741
     18 N         139.9129  146.0825  160.4402 N.3     1  UNL1       -0.2934
     19 C         139.5660  145.9635  161.8947 C.3     1  UNL1        0.0958
     20 H         139.0344  146.0410  159.9236 H       1  UNL1        0.1236
     21 N         139.9582  139.4288  171.4326 N.am    1  UNL1       -0.3241
     22 C         141.0194  140.3525  170.9123 C.2     1  UNL1        0.2606
     23 O         141.5789  141.4262  171.7977 O.2     1  UNL1       -0.2687
     24 H         139.6289  139.5273  172.3552 H       1  UNL1        0.1453
     25 H         139.5909  138.7240  170.8515 H       1  UNL1        0.1453
@<TRIPOS>BOND
     1    21    22   am
     2    22    23    2
     3    22     1    1
     4     1     2   ar
     5     2     3   ar
     6     3     4    1
     7     3     5   ar
     8     5     6   ar
     9     6     7   ar
    10     7    11    1
    11    11    12   ar
    12    12    13   ar
    13    13    14   ar
    14    14    15   ar
    15    14    16    1
    16    16    17    1
    17    17    18    1
    18    18    19    1
    19     7     8   ar
    20     8     9   ar
    21     9    10   ar
    22    10     1   ar
    23    10     5   ar
    24    15    11   ar
    25    19    13    1
    26    21    24    1
    27    21    25    1
    28    18    20    1
@<TRIPOS>MOLECULE
*****
 25 28 0 0 0
SMALL
GASTEIGER

@<TRIPOS>ATOM
      1 C         140.7028  141.3249  169.7759 C.ar    1  UNL1        0.1366
      2 C         139.4358  140.5254  169.7025 C.ar    1  UNL1        0.0367
      3 C         139.3062  139.9894  168.3075 C.ar    1  UNL1        0.0769
      4 CL        138.1863  139.1351  167.7916 Cl      1  UNL1       -0.0806
      5 C         140.4931  140.4578  167.5188 C.ar    1  UNL1        0.0936
      6 C         140.8994  140.2393  166.0915 C.ar    1  UNL1        0.0221
      7 C         142.1688  140.8462  165.5719 C.ar    1  UNL1        0.0284
      8 C         143.0320  141.6717  166.4795 C.ar    1  UNL1        0.1210
      9 N         142.6257  141.8901  167.9067 N.ar    1  UNL1       -0.1634
     10 N         141.3562  141.2832  168.4264 N.ar    1  UNL1       -0.2244
     11 C         142.5752  140.6278  164.1445 C.ar    1  UNL1        0.0305
     12 C         143.1682  139.3714  163.5791 C.ar    1  UNL1        0.0038
     13 C         143.4194  139.5945  162.1172 C.ar    1  UNL1       -0.0038
     14 C         142.9816  140.9889  161.7791 C.ar    1  UNL1        0.0060
     15 S         142.4599  141.6274  163.0321 S.2     1  UNL1       -0.0915
     16 C         143.1146  141.4968  160.3741 C.3     1  UNL1        0.0497
     17 C         143.6854  140.6105  159.3070 C.3     1  UNL1        0.0741
     18 N         144.1232  139.2162  159.6450 N.3     1  UNL1       -0.2934
     19 C         143.9902  138.7082  161.0501 C.3     1  UNL1        0.0958
     20 H         145.1112  139.1504  159.4004 H       1  UNL1        0.1236
     21 N         142.5891  142.6635  170.9593 N.am    1  UNL1       -0.3241
     22 C         141.2247  142.0406  170.9865 C.2     1  UNL1        0.2606
     23 O         140.3824  142.1336  172.2241 O.2     1  UNL1       -0.2687
     24 H         142.9316  143.1333  171.7538 H       1  UNL1        0.1453
     25 H         143.1419  142.6026  170.1470 H       1  UNL1        0.1453
@<TRIPOS>BOND
     1    21    22   am
     2    22    23    2
     3    22     1    1
     4     1     2   ar
     5     2     3   ar
     6     3     4    1
     7     3     5   ar
     8     5     6   ar
     9     6     7   ar
    10     7    11    1
    11    11    12   ar
    12    12    13   ar
    13    13    14   ar
    14    14    15   ar
    15    14    16    1
    16    16    17    1
    17    17    18    1
    18    18    19    1
    19     7     8   ar
    20     8     9   ar
    21     9    10   ar
    22    10     1   ar
    23    10     5   ar
    24    15    11   ar
    25    19    13    1
    26    21    24    1
    27    21    25    1
    28    18    20    1
@<TRIPOS>MOLECULE
*****
 25 28 0 0 0
SMALL
GASTEIGER

@<TRIPOS>ATOM
      1 C         138.3659  140.9260  161.1567 C.ar    1  UNL1        0.1366
      2 C         138.0125  142.3743  160.9916 C.ar    1  UNL1        0.0367
      3 C         138.2181  143.0551  162.3123 C.ar    1  UNL1        0.0769
      4 CL        137.9843  144.5084  162.6010 Cl      1  UNL1       -0.0806
      5 C         138.6985  142.0275  163.2937 C.ar    1  UNL1        0.0936
      6 C         139.0646  142.1199  164.7454 C.ar    1  UNL1        0.0221
      7 C         139.5220  140.8965  165.4829 C.ar    1  UNL1        0.0284
      8 C         139.6133  139.5806  164.7687 C.ar    1  UNL1        0.1210
      9 N         139.2473  139.4881  163.3170 N.ar    1  UNL1       -0.1634
     10 N         138.7898  140.7116  162.5795 N.ar    1  UNL1       -0.2244
     11 C         139.8881  140.9889  166.9346 C.ar    1  UNL1        0.0305
     12 C         139.5497  139.9834  167.9950 C.ar    1  UNL1        0.0038
     13 C         140.1093  140.4762  169.2965 C.ar    1  UNL1       -0.0038
     14 C         140.7936  141.7863  169.0406 C.ar    1  UNL1        0.0060
     15 S         140.6568  142.1032  167.5808 S.2     1  UNL1       -0.0915
     16 C         141.4527  142.5214  170.1698 C.3     1  UNL1        0.0497
     17 C         141.4276  141.9464  171.5550 C.3     1  UNL1        0.0741
     18 N         140.7434  140.6364  171.8110 N.3     1  UNL1       -0.2934
     19 C         140.0842  139.9012  170.6817 C.3     1  UNL1        0.0958
     20 H         140.0209  140.8130  172.5089 H       1  UNL1        0.1236
     21 N         139.1042  138.6142  160.2289 N.am    1  UNL1       -0.3241
     22 C         138.3059  139.8762  160.0870 C.2     1  UNL1        0.2606
     23 O         137.4476  140.0884  158.8753 O.2     1  UNL1       -0.2687
     24 H         139.0648  137.9252  159.5268 H       1  UNL1        0.1453
     25 H         139.6676  138.4749  161.0242 H       1  UNL1        0.1453
@<TRIPOS>BOND
     1    21    22   am
     2    22    23    2
     3    22     1    1
     4     1     2   ar
     5     2     3   ar
     6     3     4    1
     7     3     5   ar
     8     5     6   ar
     9     6     7   ar
    10     7    11    1
    11    11    12   ar
    12    12    13   ar
    13    13    14   ar
    14    14    15   ar
    15    14    16    1
    16    16    17    1
    17    17    18    1
    18    18    19    1
    19     7     8   ar
    20     8     9   ar
    21     9    10   ar
    22    10     1   ar
    23    10     5   ar
    24    15    11   ar
    25    19    13    1
    26    21    24    1
    27    21    25    1
    28    18    20    1
@<TRIPOS>MOLECULE
*****
 25 28 0 0 0
SMALL
GASTEIGER

@<TRIPOS>ATOM
      1 C         141.6934  138.3999  160.8817 C.ar    1  UNL1        0.1366
      2 C         140.2230  138.1871  160.6751 C.ar    1  UNL1        0.0367
      3 C         139.5346  138.3998  161.9907 C.ar    1  UNL1        0.0769
      4 CL        138.0601  138.2879  162.2425 Cl      1  UNL1       -0.0806
      5 C         140.5795  138.7440  163.0104 C.ar    1  UNL1        0.0936
      6 C         140.4884  139.0573  164.4745 C.ar    1  UNL1        0.0221
      7 C         141.7315  139.3708  165.2531 C.ar    1  UNL1        0.0284
      8 C         143.0658  139.3708  164.5677 C.ar    1  UNL1        0.1210
      9 N         143.1569  139.0575  163.1036 N.ar    1  UNL1       -0.1634
     10 N         141.9137  138.7441  162.3250 N.ar    1  UNL1       -0.2244
     11 C         141.6405  139.6841  166.7172 C.ar    1  UNL1        0.0305
     12 C         142.7573  139.5776  167.7128 C.ar    1  UNL1        0.0038
     13 C         142.2237  139.9867  169.0536 C.ar    1  UNL1       -0.0038
     14 C         140.7769  140.3460  168.8867 C.ar    1  UNL1        0.0060
     15 S         140.4165  140.1590  167.4428 S.2     1  UNL1       -0.0915
     16 C         139.9747  140.7971  170.0712 C.3     1  UNL1        0.0497
     17 C         140.6192  140.8888  171.4226 C.3     1  UNL1        0.0741
     18 N         142.0658  140.5295  171.5895 N.3     1  UNL1       -0.2934
     19 C         142.8681  140.0784  170.4050 C.3     1  UNL1        0.0958
     20 H         142.1048  139.7758  172.2758 H       1  UNL1        0.1236
     21 N         144.0922  138.9381  160.0412 N.am    1  UNL1       -0.3241
     22 C         142.7568  138.2882  159.8298 C.2     1  UNL1        0.2606
     23 O         142.4850  137.5267  158.5664 O.2     1  UNL1       -0.2687
     24 H         144.7902  138.8647  159.3507 H       1  UNL1        0.1453
     25 H         144.2706  139.4379  160.8704 H       1  UNL1        0.1453
@<TRIPOS>BOND
     1    21    22   am
     2    22    23    2
     3    22     1    1
     4     1     2   ar
     5     2     3   ar
     6     3     4    1
     7     3     5   ar
     8     5     6   ar
     9     6     7   ar
    10     7    11    1
    11    11    12   ar
    12    12    13   ar
    13    13    14   ar
    14    14    15   ar
    15    14    16    1
    16    16    17    1
    17    17    18    1
    18    18    19    1
    19     7     8   ar
    20     8     9   ar
    21     9    10   ar
    22    10     1   ar
    23    10     5   ar
    24    15    11   ar
    25    19    13    1
    26    21    24    1
    27    21    25    1
    28    18    20    1
@<TRIPOS>MOLECULE
*****
 25 28 0 0 0
SMALL
GASTEIGER

@<TRIPOS>ATOM
      1 C         141.1653  141.2313  169.6521 C.ar    1  UNL1        0.1366
      2 C         142.4290  142.0041  169.4158 C.ar    1  UNL1        0.0367
      3 C         142.6477  142.0931  167.9345 C.ar    1  UNL1        0.0769
      4 CL        143.7937  142.7794  167.2521 Cl      1  UNL1       -0.0806
      5 C         141.5191  141.3755  167.2553 C.ar    1  UNL1        0.0936
      6 C         141.2074  141.1381  165.8074 C.ar    1  UNL1        0.0221
      7 C         139.9794  140.3682  165.4211 C.ar    1  UNL1        0.0284
      8 C         139.0633  139.8355  166.4826 C.ar    1  UNL1        0.1210
      9 N         139.3750  140.0729  167.9305 N.ar    1  UNL1       -0.1634
     10 N         140.6029  140.8428  168.3169 N.ar    1  UNL1       -0.2244
     11 C         139.6676  140.1308  163.9731 C.ar    1  UNL1        0.0305
     12 C         138.3389  140.3445  163.3108 C.ar    1  UNL1        0.0038
     13 C         138.4799  139.9839  161.8617 C.ar    1  UNL1       -0.0038
     14 C         139.8959  139.5473  161.6283 C.ar    1  UNL1        0.0060
     15 S         140.6299  139.6381  162.9333 S.2     1  UNL1       -0.0915
     16 C         140.3339  139.1235  160.2577 C.3     1  UNL1        0.0497
     17 C         139.3559  139.1362  159.1205 C.3     1  UNL1        0.0741
     18 N         137.9400  139.5727  159.3538 N.3     1  UNL1       -0.2934
     19 C         137.5019  139.9966  160.7244 C.3     1  UNL1        0.0958
     20 H         137.3426  138.7919  159.0820 H       1  UNL1        0.1236
     21 N         139.8892  139.5845  171.2046 N.am    1  UNL1       -0.3241
     22 C         140.5686  140.9045  170.9889 C.2     1  UNL1        0.2606
     23 O         140.6512  141.8973  172.1102 O.2     1  UNL1       -0.2687
     24 H         139.4976  139.3700  172.0820 H       1  UNL1        0.1453
     25 H         139.8350  138.9328  170.4687 H       1  UNL1        0.1453
@<TRIPOS>BOND
     1    21    22   am
     2    22    23    2
     3    22     1    1
     4     1     2   ar
     5     2     3   ar
     6     3     4    1
     7     3     5   ar
     8     5     6   ar
     9     6     7   ar
    10     7    11    1
    11    11    12   ar
    12    12    13   ar
    13    13    14   ar
    14    14    15   ar
    15    14    16    1
    16    16    17    1
    17    17    18    1
    18    18    19    1
    19     7     8   ar
    20     8     9   ar
    21     9    10   ar
    22    10     1   ar
    23    10     5   ar
    24    15    11   ar
    25    19    13    1
    26    21    24    1
    27    21    25    1
    28    18    20    1
@<TRIPOS>MOLECULE
*****
 25 28 0 0 0
SMALL
GASTEIGER

@<TRIPOS>ATOM
      1 C         140.8098  140.7949  169.6556 C.ar    1  UNL1        0.1366
      2 C         139.6034  139.9541  169.3595 C.ar    1  UNL1        0.0367
      3 C         139.4209  139.9132  167.8713 C.ar    1  UNL1        0.0769
      4 CL        138.3354  139.1846  167.1358 Cl      1  UNL1       -0.0806
      5 C         140.5144  140.7288  167.2475 C.ar    1  UNL1        0.0936
      6 C         140.8394  141.0456  165.8178 C.ar    1  UNL1        0.0221
      7 C         142.0227  141.9074  165.4910 C.ar    1  UNL1        0.0284
      8 C         142.8812  142.4524  166.5938 C.ar    1  UNL1        0.1210
      9 N         142.5562  142.1355  168.0234 N.ar    1  UNL1       -0.1634
     10 N         141.3728  141.2737  168.3503 N.ar    1  UNL1       -0.2244
     11 C         142.3478  142.2243  164.0613 C.ar    1  UNL1        0.0305
     12 C         141.6797  143.2675  163.2155 C.ar    1  UNL1        0.0038
     13 C         142.3170  143.2415  161.8579 C.ar    1  UNL1       -0.0038
     14 C         143.3790  142.1822  161.8646 C.ar    1  UNL1        0.0060
     15 S         143.3980  141.5535  163.2263 S.2     1  UNL1       -0.0915
     16 C         144.1915  141.9269  160.6298 C.3     1  UNL1        0.0497
     17 C         143.9420  142.7310  159.3883 C.3     1  UNL1        0.0741
     18 N         142.8800  143.7903  159.3816 N.3     1  UNL1       -0.2934
     19 C         142.0675  144.0456  160.6164 C.3     1  UNL1        0.0958
     20 H         142.2223  143.5431  158.6422 H       1  UNL1        0.1236
     21 N         142.5783  140.3875  171.5148 N.am    1  UNL1       -0.3241
     22 C         141.3571  141.1030  171.0178 C.2     1  UNL1        0.2606
     23 O         140.6834  142.1264  171.8830 O.2     1  UNL1       -0.2687
     24 H         142.9375  140.5896  172.4089 H       1  UNL1        0.1453
     25 H         143.0205  139.7157  170.9470 H       1  UNL1        0.1453
@<TRIPOS>BOND
     1    21    22   am
     2    22    23    2
     3    22     1    1
     4     1     2   ar
     5     2     3   ar
     6     3     4    1
     7     3     5   ar
     8     5     6   ar
     9     6     7   ar
    10     7    11    1
    11    11    12   ar
    12    12    13   ar
    13    13    14   ar
    14    14    15   ar
    15    14    16    1
    16    16    17    1
    17    17    18    1
    18    18    19    1
    19     7     8   ar
    20     8     9   ar
    21     9    10   ar
    22    10     1   ar
    23    10     5   ar
    24    15    11   ar
    25    19    13    1
    26    21    24    1
    27    21    25    1
    28    18    20    1
@<TRIPOS>MOLECULE
*****
 25 28 0 0 0
SMALL
GASTEIGER

@<TRIPOS>ATOM
      1 C         140.5923  143.7621  161.0660 C.ar    1  UNL1        0.1366
      2 C         141.9660  144.3623  161.0148 C.ar    1  UNL1        0.0367
      3 C         142.5596  144.2792  162.3899 C.ar    1  UNL1        0.0769
      4 CL        143.9211  144.7628  162.7932 Cl      1  UNL1       -0.0806
      5 C         141.5528  143.6277  163.2909 C.ar    1  UNL1        0.0936
      6 C         141.5861  143.2842  164.7506 C.ar    1  UNL1        0.0221
      7 C         140.4035  142.6210  165.3921 C.ar    1  UNL1        0.0284
      8 C         139.1876  142.3014  164.5739 C.ar    1  UNL1        0.1210
      9 N         139.1543  142.6450  163.1142 N.ar    1  UNL1       -0.1634
     10 N         140.3369  143.3081  162.4727 N.ar    1  UNL1       -0.2244
     11 C         140.4367  142.2775  166.8519 C.ar    1  UNL1        0.0305
     12 C         140.2821  143.2436  167.9888 C.ar    1  UNL1        0.0038
     13 C         140.3802  142.4707  169.2706 C.ar    1  UNL1       -0.0038
     14 C         140.5954  141.0267  168.9258 C.ar    1  UNL1        0.0060
     15 S         140.6303  140.9074  167.4310 S.2     1  UNL1       -0.0915
     16 C         140.7318  140.0073  170.0176 C.3     1  UNL1        0.0497
     17 C         140.6530  140.4316  171.4542 C.3     1  UNL1        0.0741
     18 N         140.4378  141.8755  171.7989 N.3     1  UNL1       -0.2934
     19 C         140.3014  142.8951  170.7071 C.3     1  UNL1        0.0958
     20 H         141.2309  142.1626  172.3725 H       1  UNL1        0.1236
     21 N         138.3558  142.8822  160.0792 N.am    1  UNL1       -0.3241
     22 C         139.6410  143.6378  159.9130 C.2     1  UNL1        0.2606
     23 O         139.9747  144.2689  158.5939 O.2     1  UNL1       -0.2687
     24 H         137.7314  142.8006  159.3224 H       1  UNL1        0.1453
     25 H         138.1367  142.4679  160.9450 H       1  UNL1        0.1453
@<TRIPOS>BOND
     1    21    22   am
     2    22    23    2
     3    22     1    1
     4     1     2   ar
     5     2     3   ar
     6     3     4    1
     7     3     5   ar
     8     5     6   ar
     9     6     7   ar
    10     7    11    1
    11    11    12   ar
    12    12    13   ar
    13    13    14   ar
    14    14    15   ar
    15    14    16    1
    16    16    17    1
    17    17    18    1
    18    18    19    1
    19     7     8   ar
    20     8     9   ar
    21     9    10   ar
    22    10     1   ar
    23    10     5   ar
    24    15    11   ar
    25    19    13    1
    26    21    24    1
    27    21    25    1
    28    18    20    1
@<TRIPOS>MOLECULE
*****
 25 28 0 0 0
SMALL
GASTEIGER

@<TRIPOS>ATOM
      1 C         142.3661  142.0241  169.8174 C.ar    1  UNL1        0.1366
      2 C         142.5535  140.7422  170.5735 C.ar    1  UNL1        0.0367
      3 C         142.6421  139.6249  169.5766 C.ar    1  UNL1        0.0769
      4 CL        142.8303  138.1714  169.8958 Cl      1  UNL1       -0.0806
      5 C         142.5094  140.2162  168.2045 C.ar    1  UNL1        0.0936
      6 C         142.5219  139.5960  166.8388 C.ar    1  UNL1        0.0221
      7 C         142.3638  140.4586  165.6219 C.ar    1  UNL1        0.0284
      8 C         142.1932  141.9415  165.7707 C.ar    1  UNL1        0.1210
      9 N         142.1807  142.5617  167.1364 N.ar    1  UNL1       -0.1634
     10 N         142.3388  141.6990  168.3533 N.ar    1  UNL1       -0.2244
     11 C         142.3763  139.8384  164.2561 C.ar    1  UNL1        0.0305
     12 C         141.2881  139.9452  163.2293 C.ar    1  UNL1        0.0038
     13 C         141.7184  139.1754  162.0160 C.ar    1  UNL1       -0.0038
     14 C         143.0727  138.5928  162.2930 C.ar    1  UNL1        0.0060
     15 S         143.4792  139.0026  163.6774 S.2     1  UNL1       -0.0915
     16 C         143.7606  137.7644  161.2487 C.3     1  UNL1        0.0497
     17 C         143.0943  137.5186  159.9275 C.3     1  UNL1        0.0741
     18 N         141.7401  138.1012  159.6505 N.3     1  UNL1       -0.2934
     19 C         141.0522  138.9296  160.6948 C.3     1  UNL1        0.0958
     20 H         141.1205  137.3188  159.4399 H       1  UNL1        0.1236
     21 N         140.9291  144.1310  170.3141 N.am    1  UNL1       -0.3241
     22 C         142.2298  143.3911  170.4197 C.2     1  UNL1        0.2606
     23 O         143.3940  144.0184  171.1274 O.2     1  UNL1       -0.2687
     24 H         140.8397  145.0282  170.7094 H       1  UNL1        0.1453
     25 H         140.1650  143.7193  169.8496 H       1  UNL1        0.1453
@<TRIPOS>BOND
     1    21    22   am
     2    22    23    2
     3    22     1    1
     4     1     2   ar
     5     2     3   ar
     6     3     4    1
     7     3     5   ar
     8     5     6   ar
     9     6     7   ar
    10     7    11    1
    11    11    12   ar
    12    12    13   ar
    13    13    14   ar
    14    14    15   ar
    15    14    16    1
    16    16    17    1
    17    17    18    1
    18    18    19    1
    19     7     8   ar
    20     8     9   ar
    21     9    10   ar
    22    10     1   ar
    23    10     5   ar
    24    15    11   ar
    25    19    13    1
    26    21    24    1
    27    21    25    1
    28    18    20    1
