@<TRIPOS>MOLECULE
*****
 34 37 0 0 0
SMALL
GASTEIGER

@<TRIPOS>ATOM
      1 C         144.7392  141.0459  162.0651 C.3     1  UNL1        0.1317
      2 N         143.7190  140.1213  161.4699 N.ar    1  UNL1       -0.3117
      3 C         143.7018  139.6200  160.0562 C.ar    1  UNL1        0.0962
      4 C         142.5091  138.7244  159.8964 C.ar    1  UNL1        0.0997
      5 N         141.7893  138.6722  161.2114 N.ar    1  UNL1       -0.2309
      6 C         142.5370  139.5354  162.1838 C.ar    1  UNL1        0.1200
      7 C         142.1069  138.0071  158.6419 C.ar    1  UNL1        0.0193
      8 C         140.8367  138.3823  157.9378 C.ar    1  UNL1        0.0038
      9 C         140.4346  137.6649  156.6834 C.ar    1  UNL1        0.0296
     10 C         141.3027  136.5724  156.1330 C.ar    1  UNL1        0.1440
     11 F         140.9005  135.8551  154.8785 F       1  UNL1       -0.2042
     12 C         142.5729  136.1973  156.8371 C.ar    1  UNL1        0.0988
     13 C         142.9750  136.9146  158.0916 C.ar    1  UNL1        0.0077
     14 C         143.4409  135.1048  156.2868 C.3     1  UNL1        0.4207
     15 F         144.3090  134.0123  155.7364 F       1  UNL1       -0.1658
     16 F         142.4996  134.0772  156.8418 F       1  UNL1       -0.1658
     17 F         144.3823  136.1323  155.7318 F       1  UNL1       -0.1658
     18 C         142.1676  139.7714  163.6183 C.3     1  UNL1        0.0603
     19 C         142.5403  138.7631  164.6644 C.3     1  UNL1        0.0290
     20 C         142.1710  138.9991  166.0990 C.3     1  UNL1        0.0926
     21 N         141.4289  140.2434  166.4873 N.pl3   1  UNL1       -0.2926
     22 C         141.0561  141.2518  165.4412 C.3     1  UNL1        0.0926
     23 C         141.4255  141.0157  164.0068 C.3     1  UNL1        0.0290
     24 C         141.0595  140.4794  167.9219 C.ar    1  UNL1        0.1458
     25 N         142.0396  141.1320  168.8511 N.ar    1  UNL1       -0.2082
     26 C         141.6702  141.3680  170.2857 C.ar    1  UNL1        0.2012
     27 N         140.3207  140.9514  170.7909 N.ar    1  UNL1       -0.2087
     28 C         139.3406  140.2988  169.8617 C.ar    1  UNL1        0.1396
     29 N         137.9911  139.8822  170.3670 N.pl3   1  UNL1       -0.3420
     30 C         139.7099  140.0628  168.4272 C.ar    1  UNL1        0.1310
     31 H         137.7487  140.0371  171.3085 H       1  UNL1        0.1437
     32 H         137.3478  139.4539  169.7571 H       1  UNL1        0.1437
     33 C         138.7298  139.4102  167.4979 C.1     1  UNL1        0.1061
     34 N         137.7497  138.7576  166.5687 N.1     1  UNL1       -0.1906
@<TRIPOS>BOND
     1     1     2    1
     2     2     3   ar
     3     3     4   ar
     4     4     7    1
     5     7     8   ar
     6     8     9   ar
     7     9    10   ar
     8    10    11    1
     9    10    12   ar
    10    12    14    1
    11    14    15    1
    12    14    16    1
    13    14    17    1
    14    12    13   ar
    15     4     5   ar
    16     5     6   ar
    17     6    18    1
    18    18    19    1
    19    19    20    1
    20    20    21    1
    21    21    24    1
    22    24    25   ar
    23    25    26   ar
    24    26    27   ar
    25    27    28   ar
    26    28    29    1
    27    28    30   ar
    28    30    33    1
    29    33    34    3
    30    21    22    1
    31    22    23    1
    32     6     2   ar
    33    23    18    1
    34    13     7   ar
    35    30    24   ar
    36    29    31    1
    37    29    32    1
@<TRIPOS>MOLECULE
*****
 34 37 0 0 0
SMALL
GASTEIGER

@<TRIPOS>ATOM
      1 C         139.3714  143.3694  162.1333 C.3     1  UNL1        0.1317
      2 N         140.1790  142.7407  163.2299 N.ar    1  UNL1       -0.3117
      3 C         140.2970  143.2444  164.6379 C.ar    1  UNL1        0.0962
      4 C         141.2013  142.3129  165.3892 C.ar    1  UNL1        0.0997
      5 N         141.6424  141.2336  164.4456 N.ar    1  UNL1       -0.2309
      6 C         141.0106  141.4979  163.1111 C.ar    1  UNL1        0.1200
      7 C         141.5955  142.4388  166.8311 C.ar    1  UNL1        0.0193
      8 C         143.0195  142.2083  167.2422 C.ar    1  UNL1        0.0038
      9 C         143.4136  142.3341  168.6840 C.ar    1  UNL1        0.0296
     10 C         142.3836  142.6905  169.7147 C.ar    1  UNL1        0.1440
     11 F         142.7778  142.8163  171.1565 F       1  UNL1       -0.2042
     12 C         140.9596  142.9209  169.3035 C.ar    1  UNL1        0.0988
     13 C         140.5656  142.7951  167.8618 C.ar    1  UNL1        0.0077
     14 C         139.9297  143.2772  170.3342 C.3     1  UNL1        0.4207
     15 F         138.8998  143.6336  171.3649 F       1  UNL1       -0.1658
     16 F         140.3706  144.7099  170.2795 F       1  UNL1       -0.1658
     17 F         139.4888  141.8446  170.3890 F       1  UNL1       -0.1658
     18 C         141.1804  140.6656  161.8748 C.3     1  UNL1        0.0603
     19 C         141.9617  141.2011  160.7117 C.3     1  UNL1        0.0290
     20 C         142.1316  140.3689  159.4753 C.3     1  UNL1        0.0926
     21 N         141.5202  139.0011  159.4022 N.pl3   1  UNL1       -0.2926
     22 C         140.7388  138.4656  160.5653 C.3     1  UNL1        0.0926
     23 C         140.5690  139.2979  161.8015 C.3     1  UNL1        0.0290
     24 C         141.6901  138.1689  158.1658 C.ar    1  UNL1        0.1458
     25 N         142.9025  137.3001  158.0074 N.ar    1  UNL1       -0.2082
     26 C         143.0724  136.4678  156.7710 C.ar    1  UNL1        0.2012
     27 N         142.0297  136.5043  155.6932 N.ar    1  UNL1       -0.2087
     28 C         140.8173  137.3732  155.8517 C.ar    1  UNL1        0.1396
     29 N         139.7747  137.4097  154.7738 N.pl3   1  UNL1       -0.3420
     30 C         140.6474  138.2054  157.0880 C.ar    1  UNL1        0.1310
     31 H         139.8863  136.8634  153.9624 H       1  UNL1        0.1437
     32 H         138.9790  137.9799  154.8778 H       1  UNL1        0.1437
     33 C         139.4350  139.0743  157.2465 C.1     1  UNL1        0.1061
     34 N         138.2226  139.9431  157.4050 N.1     1  UNL1       -0.1906
@<TRIPOS>BOND
     1     1     2    1
     2     2     3   ar
     3     3     4   ar
     4     4     7    1
     5     7     8   ar
     6     8     9   ar
     7     9    10   ar
     8    10    11    1
     9    10    12   ar
    10    12    14    1
    11    14    15    1
    12    14    16    1
    13    14    17    1
    14    12    13   ar
    15     4     5   ar
    16     5     6   ar
    17     6    18    1
    18    18    19    1
    19    19    20    1
    20    20    21    1
    21    21    24    1
    22    24    25   ar
    23    25    26   ar
    24    26    27   ar
    25    27    28   ar
    26    28    29    1
    27    28    30   ar
    28    30    33    1
    29    33    34    3
    30    21    22    1
    31    22    23    1
    32     6     2   ar
    33    23    18    1
    34    13     7   ar
    35    30    24   ar
    36    29    31    1
    37    29    32    1
@<TRIPOS>MOLECULE
*****
 34 37 0 0 0
SMALL
GASTEIGER

@<TRIPOS>ATOM
      1 C         144.9292  142.1497  161.9265 C.3     1  UNL1        0.1317
      2 N         143.9646  141.9564  163.0588 N.ar    1  UNL1       -0.3117
      3 C         144.3239  141.6163  164.4748 C.ar    1  UNL1        0.0962
      4 C         143.0526  141.5189  165.2651 C.ar    1  UNL1        0.0997
      5 N         141.9076  141.7987  164.3374 N.ar    1  UNL1       -0.2309
      6 C         142.4712  142.0691  162.9739 C.ar    1  UNL1        0.1200
      7 C         142.9453  141.1979  166.7265 C.ar    1  UNL1        0.0193
      8 C         142.5791  139.8110  167.1648 C.ar    1  UNL1        0.0038
      9 C         142.4718  139.4901  168.6261 C.ar    1  UNL1        0.0296
     10 C         142.7307  140.5562  169.6491 C.ar    1  UNL1        0.1440
     11 F         142.6233  140.2352  171.1105 F       1  UNL1       -0.2042
     12 C         143.0969  141.9431  169.2107 C.ar    1  UNL1        0.0988
     13 C         143.2042  142.2640  167.7494 C.ar    1  UNL1        0.0077
     14 C         143.3558  143.0092  170.2337 C.3     1  UNL1        0.4207
     15 F         143.6147  144.0753  171.2567 F       1  UNL1       -0.1658
     16 F         144.8226  142.6993  170.1855 F       1  UNL1       -0.1658
     17 F         141.8890  143.3192  170.2819 F       1  UNL1       -0.1658
     18 C         141.6802  142.3950  161.7417 C.3     1  UNL1        0.0603
     19 C         141.7364  141.4838  160.5516 C.3     1  UNL1        0.0290
     20 C         140.9455  141.8097  159.3194 C.3     1  UNL1        0.0926
     21 N         140.0985  143.0468  159.2774 N.pl3   1  UNL1       -0.2926
     22 C         140.0423  143.9582  160.4676 C.3     1  UNL1        0.0926
     23 C         140.8332  143.6322  161.6996 C.3     1  UNL1        0.0290
     24 C         139.3075  143.3728  158.0452 C.ar    1  UNL1        0.1458
     25 N         138.0567  142.6063  157.7324 N.ar    1  UNL1       -0.2082
     26 C         137.2658  142.9322  156.5002 C.ar    1  UNL1        0.2012
     27 N         137.7258  144.0247  155.5808 N.ar    1  UNL1       -0.2087
     28 C         138.9766  144.7911  155.8937 C.ar    1  UNL1        0.1396
     29 N         139.4365  145.8835  154.9744 N.pl3   1  UNL1       -0.3420
     30 C         139.7675  144.4652  157.1259 C.ar    1  UNL1        0.1310
     31 H         138.9174  146.0974  154.1657 H       1  UNL1        0.1437
     32 H         140.2575  146.3866  155.1797 H       1  UNL1        0.1437
     33 C         141.0183  145.2317  157.4387 C.1     1  UNL1        0.1061
     34 N         142.2692  145.9982  157.7516 N.1     1  UNL1       -0.1906
@<TRIPOS>BOND
     1     1     2    1
     2     2     3   ar
     3     3     4   ar
     4     4     7    1
     5     7     8   ar
     6     8     9   ar
     7     9    10   ar
     8    10    11    1
     9    10    12   ar
    10    12    14    1
    11    14    15    1
    12    14    16    1
    13    14    17    1
    14    12    13   ar
    15     4     5   ar
    16     5     6   ar
    17     6    18    1
    18    18    19    1
    19    19    20    1
    20    20    21    1
    21    21    24    1
    22    24    25   ar
    23    25    26   ar
    24    26    27   ar
    25    27    28   ar
    26    28    29    1
    27    28    30   ar
    28    30    33    1
    29    33    34    3
    30    21    22    1
    31    22    23    1
    32     6     2   ar
    33    23    18    1
    34    13     7   ar
    35    30    24   ar
    36    29    31    1
    37    29    32    1
@<TRIPOS>MOLECULE
*****
 34 37 0 0 0
SMALL
GASTEIGER

@<TRIPOS>ATOM
      1 C         143.5823  138.4007  162.1759 C.3     1  UNL1        0.1317
      2 N         142.8439  139.1905  163.2157 N.ar    1  UNL1       -0.3117
      3 C         142.6250  138.7822  164.6423 C.ar    1  UNL1        0.0962
      4 C         141.8406  139.8666  165.3197 C.ar    1  UNL1        0.0997
      5 N         141.5747  140.9451  164.3117 N.ar    1  UNL1       -0.2309
      6 C         142.1948  140.5273  163.0114 C.ar    1  UNL1        0.1200
      7 C         141.3996  139.8715  166.7535 C.ar    1  UNL1        0.0193
      8 C         139.9567  140.1005  167.0935 C.ar    1  UNL1        0.0038
      9 C         139.5157  140.1055  168.5272 C.ar    1  UNL1        0.0296
     10 C         140.5176  139.8814  169.6208 C.ar    1  UNL1        0.1440
     11 F         140.0765  139.8864  171.0546 F       1  UNL1       -0.2042
     12 C         141.9604  139.6524  169.2808 C.ar    1  UNL1        0.0988
     13 C         142.4014  139.6475  167.8471 C.ar    1  UNL1        0.0077
     14 C         142.9623  139.4284  170.3744 C.3     1  UNL1        0.4207
     15 F         143.9642  139.2044  171.4681 F       1  UNL1       -0.1658
     16 F         142.6669  137.9581  170.3438 F       1  UNL1       -0.1658
     17 F         143.2577  140.8987  170.4050 F       1  UNL1       -0.1658
     18 C         142.1701  141.3090  161.7314 C.3     1  UNL1        0.0603
     19 C         141.1350  141.0076  160.6884 C.3     1  UNL1        0.0290
     20 C         141.1103  141.7893  159.4084 C.3     1  UNL1        0.0926
     21 N         142.1206  142.8723  159.1715 N.pl3   1  UNL1       -0.2926
     22 C         143.1557  143.1737  160.2145 C.3     1  UNL1        0.0926
     23 C         143.1804  142.3920  161.4944 C.3     1  UNL1        0.0290
     24 C         142.0959  143.6540  157.8915 C.ar    1  UNL1        0.1458
     25 N         142.8622  143.1642  156.6986 N.ar    1  UNL1       -0.2082
     26 C         142.8375  143.9459  155.4186 C.ar    1  UNL1        0.2012
     27 N         142.0464  145.2175  155.3315 N.ar    1  UNL1       -0.2087
     28 C         141.2801  145.7073  156.5244 C.ar    1  UNL1        0.1396
     29 N         140.4891  146.9788  156.4372 N.pl3   1  UNL1       -0.3420
     30 C         141.3048  144.9256  157.8044 C.ar    1  UNL1        0.1310
     31 H         140.4729  147.4918  155.5971 H       1  UNL1        0.1437
     32 H         139.9862  147.3002  157.2201 H       1  UNL1        0.1437
     33 C         140.5386  145.4154  158.9972 C.1     1  UNL1        0.1061
     34 N         139.7723  145.9051  160.1900 N.1     1  UNL1       -0.1906
@<TRIPOS>BOND
     1     1     2    1
     2     2     3   ar
     3     3     4   ar
     4     4     7    1
     5     7     8   ar
     6     8     9   ar
     7     9    10   ar
     8    10    11    1
     9    10    12   ar
    10    12    14    1
    11    14    15    1
    12    14    16    1
    13    14    17    1
    14    12    13   ar
    15     4     5   ar
    16     5     6   ar
    17     6    18    1
    18    18    19    1
    19    19    20    1
    20    20    21    1
    21    21    24    1
    22    24    25   ar
    23    25    26   ar
    24    26    27   ar
    25    27    28   ar
    26    28    29    1
    27    28    30   ar
    28    30    33    1
    29    33    34    3
    30    21    22    1
    31    22    23    1
    32     6     2   ar
    33    23    18    1
    34    13     7   ar
    35    30    24   ar
    36    29    31    1
    37    29    32    1
@<TRIPOS>MOLECULE
*****
 34 37 0 0 0
SMALL
GASTEIGER

@<TRIPOS>ATOM
      1 C         143.9840  138.8250  162.8479 C.3     1  UNL1        0.1317
      2 N         143.3146  139.6424  163.9127 N.ar    1  UNL1       -0.3117
      3 C         143.2343  139.2963  165.3700 C.ar    1  UNL1        0.0962
      4 C         142.4781  140.3894  166.0651 C.ar    1  UNL1        0.0997
      5 N         142.0910  141.4111  165.0374 N.ar    1  UNL1       -0.2309
      6 C         142.6080  140.9495  163.7072 C.ar    1  UNL1        0.1200
      7 C         142.1641  140.4501  167.5307 C.ar    1  UNL1        0.0193
      8 C         142.6000  139.3379  168.4378 C.ar    1  UNL1        0.0038
      9 C         142.2860  139.3986  169.9033 C.ar    1  UNL1        0.0296
     10 C         141.5360  140.5716  170.4616 C.ar    1  UNL1        0.1440
     11 F         141.2220  140.6323  171.9272 F       1  UNL1       -0.2042
     12 C         141.1001  141.6838  169.5545 C.ar    1  UNL1        0.0988
     13 C         141.4141  141.6231  168.0890 C.ar    1  UNL1        0.0077
     14 C         140.3501  142.8567  170.1129 C.3     1  UNL1        0.4207
     15 F         139.6002  144.0297  170.6712 F       1  UNL1       -0.1658
     16 F         141.5622  143.7205  169.9263 F       1  UNL1       -0.1658
     17 F         139.1381  141.9929  170.2995 F       1  UNL1       -0.1658
     18 C         142.4467  141.6687  162.4007 C.3     1  UNL1        0.0603
     19 C         141.2371  141.4166  161.5502 C.3     1  UNL1        0.0290
     20 C         141.0757  142.1358  160.2438 C.3     1  UNL1        0.0926
     21 N         142.1240  143.1069  159.7879 N.pl3   1  UNL1       -0.2926
     22 C         143.3337  143.3590  160.6384 C.3     1  UNL1        0.0926
     23 C         143.4949  142.6398  161.9447 C.3     1  UNL1        0.0290
     24 C         141.9627  143.8261  158.4814 C.ar    1  UNL1        0.1458
     25 N         142.6964  143.3449  157.2648 N.ar    1  UNL1       -0.2082
     26 C         142.5351  144.0640  155.9584 C.ar    1  UNL1        0.2012
     27 N         141.6400  145.2644  155.8685 N.ar    1  UNL1       -0.2087
     28 C         140.9063  145.7456  157.0851 C.ar    1  UNL1        0.1396
     29 N         140.0113  146.9460  156.9952 N.pl3   1  UNL1       -0.3420
     30 C         141.0676  145.0265  158.3916 C.ar    1  UNL1        0.1310
     31 H         139.9054  147.4180  156.1378 H       1  UNL1        0.1437
     32 H         139.5297  147.2618  157.7937 H       1  UNL1        0.1437
     33 C         140.3339  145.5077  159.6082 C.1     1  UNL1        0.1061
     34 N         139.6002  145.9889  160.8247 N.1     1  UNL1       -0.1906
@<TRIPOS>BOND
     1     1     2    1
     2     2     3   ar
     3     3     4   ar
     4     4     7    1
     5     7     8   ar
     6     8     9   ar
     7     9    10   ar
     8    10    11    1
     9    10    12   ar
    10    12    14    1
    11    14    15    1
    12    14    16    1
    13    14    17    1
    14    12    13   ar
    15     4     5   ar
    16     5     6   ar
    17     6    18    1
    18    18    19    1
    19    19    20    1
    20    20    21    1
    21    21    24    1
    22    24    25   ar
    23    25    26   ar
    24    26    27   ar
    25    27    28   ar
    26    28    29    1
    27    28    30   ar
    28    30    33    1
    29    33    34    3
    30    21    22    1
    31    22    23    1
    32     6     2   ar
    33    23    18    1
    34    13     7   ar
    35    30    24   ar
    36    29    31    1
    37    29    32    1
@<TRIPOS>MOLECULE
*****
 34 37 0 0 0
SMALL
GASTEIGER

@<TRIPOS>ATOM
      1 C         138.7148  137.6341  162.8583 C.3     1  UNL1        0.1317
      2 N         139.5682  138.4448  163.7880 N.ar    1  UNL1       -0.3117
      3 C         139.3019  138.6867  165.2442 C.ar    1  UNL1        0.0962
      4 C         140.4069  139.5474  165.7810 C.ar    1  UNL1        0.0997
      5 N         141.3563  139.8375  164.6565 N.ar    1  UNL1       -0.2309
      6 C         140.8380  139.1562  163.4248 C.ar    1  UNL1        0.1200
      7 C         140.5393  140.0327  167.1941 C.ar    1  UNL1        0.0193
      8 C         139.3669  139.9555  168.1266 C.ar    1  UNL1        0.0038
      9 C         139.4994  140.4408  169.5397 C.ar    1  UNL1        0.0296
     10 C         140.8042  141.0034  170.0203 C.ar    1  UNL1        0.1440
     11 F         140.9366  141.4888  171.4335 F       1  UNL1       -0.2042
     12 C         141.9765  141.0806  169.0878 C.ar    1  UNL1        0.0988
     13 C         141.8441  140.5953  167.6748 C.ar    1  UNL1        0.0077
     14 C         143.2814  141.6432  169.5685 C.3     1  UNL1        0.4207
     15 F         144.5862  142.2058  170.0491 F       1  UNL1       -0.1658
     16 F         143.0581  142.8715  168.7369 F       1  UNL1       -0.1658
     17 F         143.5046  140.4150  170.4001 F       1  UNL1       -0.1658
     18 C         141.4772  139.1816  162.0680 C.3     1  UNL1        0.0603
     19 C         142.8142  138.5354  161.8566 C.3     1  UNL1        0.0290
     20 C         143.4534  138.5608  160.4998 C.3     1  UNL1        0.0926
     21 N         142.7555  139.2324  159.3545 N.pl3   1  UNL1       -0.2926
     22 C         141.4184  139.8787  159.5659 C.3     1  UNL1        0.0926
     23 C         140.7793  139.8532  160.9226 C.3     1  UNL1        0.0290
     24 C         143.3947  139.2579  157.9978 C.ar    1  UNL1        0.1458
     25 N         143.2159  138.0988  157.0626 N.ar    1  UNL1       -0.2082
     26 C         143.8550  138.1242  155.7058 C.ar    1  UNL1        0.2012
     27 N         144.6731  139.3088  155.2842 N.ar    1  UNL1       -0.2087
     28 C         144.8519  140.4679  156.2194 C.ar    1  UNL1        0.1396
     29 N         145.6699  141.6524  155.7977 N.pl3   1  UNL1       -0.3420
     30 C         144.2127  140.4425  157.5762 C.ar    1  UNL1        0.1310
     31 H         146.0894  141.6691  154.9073 H       1  UNL1        0.1437
     32 H         145.7873  142.4132  156.4115 H       1  UNL1        0.1437
     33 C         144.3916  141.6015  158.5113 C.1     1  UNL1        0.1061
     34 N         144.5704  142.7606  159.4465 N.1     1  UNL1       -0.1906
@<TRIPOS>BOND
     1     1     2    1
     2     2     3   ar
     3     3     4   ar
     4     4     7    1
     5     7     8   ar
     6     8     9   ar
     7     9    10   ar
     8    10    11    1
     9    10    12   ar
    10    12    14    1
    11    14    15    1
    12    14    16    1
    13    14    17    1
    14    12    13   ar
    15     4     5   ar
    16     5     6   ar
    17     6    18    1
    18    18    19    1
    19    19    20    1
    20    20    21    1
    21    21    24    1
    22    24    25   ar
    23    25    26   ar
    24    26    27   ar
    25    27    28   ar
    26    28    29    1
    27    28    30   ar
    28    30    33    1
    29    33    34    3
    30    21    22    1
    31    22    23    1
    32     6     2   ar
    33    23    18    1
    34    13     7   ar
    35    30    24   ar
    36    29    31    1
    37    29    32    1
@<TRIPOS>MOLECULE
*****
 34 37 0 0 0
SMALL
GASTEIGER

@<TRIPOS>ATOM
      1 C         137.9066  142.7141  162.2931 C.3     1  UNL1        0.1317
      2 N         139.0449  142.2930  163.1746 N.ar    1  UNL1       -0.3117
      3 C         139.2965  142.7657  164.5758 C.ar    1  UNL1        0.0962
      4 C         140.5385  142.0901  165.0769 C.ar    1  UNL1        0.0997
      5 N         141.0545  141.1999  163.9854 N.ar    1  UNL1       -0.2309
      6 C         140.1314  141.3253  162.8098 C.ar    1  UNL1        0.1200
      7 C         141.1561  142.2727  166.4316 C.ar    1  UNL1        0.0193
      8 C         142.6350  142.0984  166.6113 C.ar    1  UNL1        0.0038
      9 C         143.2526  142.2810  167.9661 C.ar    1  UNL1        0.0296
     10 C         142.3912  142.6379  169.1411 C.ar    1  UNL1        0.1440
     11 F         143.0088  142.8205  170.4958 F       1  UNL1       -0.2042
     12 C         140.9122  142.8121  168.9613 C.ar    1  UNL1        0.0988
     13 C         140.2947  142.6295  167.6066 C.ar    1  UNL1        0.0077
     14 C         140.0508  143.1690  170.1363 C.3     1  UNL1        0.4207
     15 F         139.1894  143.5259  171.3113 F       1  UNL1       -0.1658
     16 F         139.7563  141.7156  170.3619 F       1  UNL1       -0.1658
     17 F         140.3453  144.6224  169.9108 F       1  UNL1       -0.1658
     18 C         140.2703  140.6088  161.4993 C.3     1  UNL1        0.0603
     19 C         140.3113  139.1097  161.4648 C.3     1  UNL1        0.0290
     20 C         140.4502  138.3932  160.1543 C.3     1  UNL1        0.0926
     21 N         140.5482  139.1758  158.8784 N.pl3   1  UNL1       -0.2926
     22 C         140.5073  140.6749  158.9129 C.3     1  UNL1        0.0926
     23 C         140.3683  141.3913  160.2233 C.3     1  UNL1        0.0290
     24 C         140.6872  138.4592  157.5679 C.ar    1  UNL1        0.1458
     25 N         139.5165  137.7220  156.9884 N.ar    1  UNL1       -0.2082
     26 C         139.6555  137.0054  155.6780 C.ar    1  UNL1        0.2012
     27 N         140.9652  137.0262  154.9470 N.ar    1  UNL1       -0.2087
     28 C         142.1359  137.7635  155.5265 C.ar    1  UNL1        0.1396
     29 N         143.4456  137.7843  154.7955 N.pl3   1  UNL1       -0.3420
     30 C         141.9970  138.4800  156.8370 C.ar    1  UNL1        0.1310
     31 H         143.5368  137.3140  153.9354 H       1  UNL1        0.1437
     32 H         144.2140  138.2682  155.1759 H       1  UNL1        0.1437
     33 C         143.1677  139.2173  157.4165 C.1     1  UNL1        0.1061
     34 N         144.3384  139.9546  157.9960 N.1     1  UNL1       -0.1906
@<TRIPOS>BOND
     1     1     2    1
     2     2     3   ar
     3     3     4   ar
     4     4     7    1
     5     7     8   ar
     6     8     9   ar
     7     9    10   ar
     8    10    11    1
     9    10    12   ar
    10    12    14    1
    11    14    15    1
    12    14    16    1
    13    14    17    1
    14    12    13   ar
    15     4     5   ar
    16     5     6   ar
    17     6    18    1
    18    18    19    1
    19    19    20    1
    20    20    21    1
    21    21    24    1
    22    24    25   ar
    23    25    26   ar
    24    26    27   ar
    25    27    28   ar
    26    28    29    1
    27    28    30   ar
    28    30    33    1
    29    33    34    3
    30    21    22    1
    31    22    23    1
    32     6     2   ar
    33    23    18    1
    34    13     7   ar
    35    30    24   ar
    36    29    31    1
    37    29    32    1
@<TRIPOS>MOLECULE
*****
 34 37 0 0 0
SMALL
GASTEIGER

@<TRIPOS>ATOM
      1 C         145.9618  141.6985  163.5655 C.3     1  UNL1        0.1317
      2 N         144.7736  141.9762  162.6932 N.ar    1  UNL1       -0.3117
      3 C         144.8051  142.2319  161.2155 C.ar    1  UNL1        0.0962
      4 C         143.3962  142.4607  160.7544 C.ar    1  UNL1        0.0997
      5 N         142.4938  142.3463  161.9472 N.ar    1  UNL1       -0.2309
      6 C         143.3451  142.0469  163.1454 C.ar    1  UNL1        0.1200
      7 C         142.9653  142.7525  159.3475 C.ar    1  UNL1        0.0193
      8 C         143.3077  141.7955  158.2445 C.ar    1  UNL1        0.0038
      9 C         142.8768  142.0874  156.8377 C.ar    1  UNL1        0.0296
     10 C         142.1035  143.3363  156.5340 C.ar    1  UNL1        0.1440
     11 F         141.6726  143.6282  155.1271 F       1  UNL1       -0.2042
     12 C         141.7611  144.2933  157.6371 C.ar    1  UNL1        0.0988
     13 C         142.1920  144.0014  159.0438 C.ar    1  UNL1        0.0077
     14 C         140.9877  145.5422  157.3334 C.3     1  UNL1        0.4207
     15 F         140.2144  146.7911  157.0297 F       1  UNL1       -0.1658
     16 F         139.7107  144.7555  157.3501 F       1  UNL1       -0.1658
     17 F         142.2648  146.3289  157.3167 F       1  UNL1       -0.1658
     18 C         142.8541  141.8523  164.5493 C.3     1  UNL1        0.0603
     19 C         143.1813  140.5898  165.2901 C.3     1  UNL1        0.0290
     20 C         142.6903  140.3952  166.6941 C.3     1  UNL1        0.0926
     21 N         141.8721  141.4632  167.3572 N.pl3   1  UNL1       -0.2926
     22 C         141.5447  142.7258  166.6163 C.3     1  UNL1        0.0926
     23 C         142.0357  142.9203  165.2125 C.3     1  UNL1        0.0290
     24 C         141.3810  141.2686  168.7611 C.ar    1  UNL1        0.1458
     25 N         142.1564  141.8372  169.9124 N.ar    1  UNL1       -0.2082
     26 C         141.6654  141.6426  171.3164 C.ar    1  UNL1        0.2012
     27 N         140.3989  140.8795  171.5690 N.ar    1  UNL1       -0.2087
     28 C         139.6235  140.3109  170.4177 C.ar    1  UNL1        0.1396
     29 N         138.3571  139.5479  170.6704 N.pl3   1  UNL1       -0.3420
     30 C         140.1145  140.5055  169.0137 C.ar    1  UNL1        0.1310
     31 H         138.0348  139.4202  171.5918 H       1  UNL1        0.1437
     32 H         137.8482  139.1747  169.9147 H       1  UNL1        0.1437
     33 C         139.3391  139.9370  167.8625 C.1     1  UNL1        0.1061
     34 N         138.5637  139.3685  166.7112 N.1     1  UNL1       -0.1906
@<TRIPOS>BOND
     1     1     2    1
     2     2     3   ar
     3     3     4   ar
     4     4     7    1
     5     7     8   ar
     6     8     9   ar
     7     9    10   ar
     8    10    11    1
     9    10    12   ar
    10    12    14    1
    11    14    15    1
    12    14    16    1
    13    14    17    1
    14    12    13   ar
    15     4     5   ar
    16     5     6   ar
    17     6    18    1
    18    18    19    1
    19    19    20    1
    20    20    21    1
    21    21    24    1
    22    24    25   ar
    23    25    26   ar
    24    26    27   ar
    25    27    28   ar
    26    28    29    1
    27    28    30   ar
    28    30    33    1
    29    33    34    3
    30    21    22    1
    31    22    23    1
    32     6     2   ar
    33    23    18    1
    34    13     7   ar
    35    30    24   ar
    36    29    31    1
    37    29    32    1
@<TRIPOS>MOLECULE
*****
 34 37 0 0 0
SMALL
GASTEIGER

@<TRIPOS>ATOM
      1 C         144.1486  138.7434  162.5720 C.3     1  UNL1        0.1317
      2 N         143.2341  139.2649  163.6404 N.ar    1  UNL1       -0.3117
      3 C         143.5664  139.3998  165.0969 C.ar    1  UNL1        0.0962
      4 C         142.3642  139.9613  165.7966 C.ar    1  UNL1        0.0997
      5 N         141.2889  140.1735  164.7726 N.ar    1  UNL1       -0.2309
      6 C         141.8265  139.7431  163.4400 C.ar    1  UNL1        0.1200
      7 C         142.2564  140.2585  167.2630 C.ar    1  UNL1        0.0193
      8 C         142.5980  139.2004  168.2698 C.ar    1  UNL1        0.0038
      9 C         142.4902  139.4976  169.7360 C.ar    1  UNL1        0.0296
     10 C         142.0407  140.8529  170.1955 C.ar    1  UNL1        0.1440
     11 F         141.9329  141.1501  171.6619 F       1  UNL1       -0.2042
     12 C         141.6991  141.9110  169.1887 C.ar    1  UNL1        0.0988
     13 C         141.8069  141.6138  167.7225 C.ar    1  UNL1        0.0077
     14 C         141.2496  143.2663  169.6482 C.3     1  UNL1        0.4207
     15 F         140.8001  144.6216  170.1077 F       1  UNL1       -0.1658
     16 F         139.8738  142.9897  169.1184 F       1  UNL1       -0.1658
     17 F         142.6254  143.5429  170.1781 F       1  UNL1       -0.1658
     18 C         141.0864  139.7838  162.1359 C.3     1  UNL1        0.0603
     19 C         141.2480  140.9591  161.2181 C.3     1  UNL1        0.0290
     20 C         140.5080  140.9998  159.9140 C.3     1  UNL1        0.0926
     21 N         139.6063  139.8650  159.5278 N.pl3   1  UNL1       -0.2926
     22 C         139.4446  138.6896  160.4456 C.3     1  UNL1        0.0926
     23 C         140.1846  138.6490  161.7496 C.3     1  UNL1        0.0290
     24 C         138.8662  139.9057  158.2237 C.ar    1  UNL1        0.1458
     25 N         137.5582  140.6335  158.1260 N.ar    1  UNL1       -0.2082
     26 C         136.8182  140.6741  156.8219 C.ar    1  UNL1        0.2012
     27 N         137.3861  139.9869  155.6155 N.ar    1  UNL1       -0.2087
     28 C         138.6940  139.2591  155.7132 C.ar    1  UNL1        0.1396
     29 N         139.2619  138.5720  154.5068 N.pl3   1  UNL1       -0.3420
     30 C         139.4341  139.2185  157.0173 C.ar    1  UNL1        0.1310
     31 H         138.7762  138.5987  153.6509 H       1  UNL1        0.1437
     32 H         140.1204  138.0943  154.5709 H       1  UNL1        0.1437
     33 C         140.7421  138.4907  157.1150 C.1     1  UNL1        0.1061
     34 N         142.0500  137.7629  157.2127 N.1     1  UNL1       -0.1906
@<TRIPOS>BOND
     1     1     2    1
     2     2     3   ar
     3     3     4   ar
     4     4     7    1
     5     7     8   ar
     6     8     9   ar
     7     9    10   ar
     8    10    11    1
     9    10    12   ar
    10    12    14    1
    11    14    15    1
    12    14    16    1
    13    14    17    1
    14    12    13   ar
    15     4     5   ar
    16     5     6   ar
    17     6    18    1
    18    18    19    1
    19    19    20    1
    20    20    21    1
    21    21    24    1
    22    24    25   ar
    23    25    26   ar
    24    26    27   ar
    25    27    28   ar
    26    28    29    1
    27    28    30   ar
    28    30    33    1
    29    33    34    3
    30    21    22    1
    31    22    23    1
    32     6     2   ar
    33    23    18    1
    34    13     7   ar
    35    30    24   ar
    36    29    31    1
    37    29    32    1
