@<TRIPOS>MOLECULE
*****
 45 52 0 0 0
SMALL
GASTEIGER

@<TRIPOS>ATOM
      1 C         141.3425  138.9978  162.2156 C.ar    1  UNL1        0.0176
      2 C         142.4617  138.0368  161.9442 C.ar    1  UNL1        0.0012
      3 C         142.8736  137.7447  160.5317 C.ar    1  UNL1       -0.0029
      4 C         142.1661  138.4137  159.3906 C.ar    1  UNL1       -0.0061
      5 C         141.0468  139.3747  159.6621 C.ar    1  UNL1       -0.0029
      6 C         140.6350  139.6667  161.0746 C.ar    1  UNL1        0.0012
      7 C         137.2132  139.6049  170.7964 C.3     1  UNL1        0.0742
      8 C         138.3094  139.9980  169.8509 C.ar    1  UNL1        0.1475
      9 N         139.4407  140.9353  170.1534 N.ar    1  UNL1       -0.1330
     10 N         140.2972  141.0393  168.9264 N.ar    1  UNL1       -0.1287
     11 C         139.6952  140.1662  167.8655 C.ar    1  UNL1        0.1715
     12 C         140.1070  139.8741  166.4531 C.ar    1  UNL1        0.0540
     13 C         141.3356  140.5177  165.8817 C.ar    1  UNL1        0.0061
     14 C         141.7474  140.2255  164.4692 C.ar    1  UNL1        0.0178
     15 C         140.9306  139.2899  163.6281 C.ar    1  UNL1        0.0812
     16 N         139.7022  138.6463  164.1995 N.ar    1  UNL1       -0.2452
     17 C         139.2903  138.9384  165.6120 C.ar    1  UNL1        0.0857
     18 C         138.0618  138.2949  166.1834 C.ar    1  UNL1        0.0383
     19 C         137.6499  138.5870  167.5959 C.ar    1  UNL1        0.0841
     20 N         138.4667  139.5227  168.4369 N.ar    1  UNL1       -0.2758
     21 C         142.9760  140.8692  163.8978 C.ar    1  UNL1        0.0015
     22 C         144.3346  140.3525  164.2681 C.ar    1  UNL1        0.0000
     23 C         145.5631  140.9961  163.6968 C.ar    1  UNL1        0.0000
     24 C         145.4330  142.1565  162.7551 C.ar    1  UNL1        0.0000
     25 C         144.0744  142.6731  162.3848 C.ar    1  UNL1        0.0000
     26 C         142.8458  142.0295  162.9562 C.ar    1  UNL1        0.0000
     27 C         142.5779  138.1216  157.9782 C.3     1  UNL1        0.0991
     28 N         143.5551  139.0210  157.2807 N.3     1  UNL1       -0.2689
     29 C         144.0585  140.2566  157.9661 C.3     1  UNL1        0.0728
     30 C         145.0356  141.1558  157.2686 C.3     1  UNL1        0.0249
     31 C         145.5094  140.8194  155.8857 C.3     1  UNL1        0.0613
     32 C         145.0060  139.5838  155.2003 C.3     1  UNL1        0.0249
     33 C         144.0289  138.6846  155.8978 C.3     1  UNL1        0.0728
     34 C         146.4865  141.7186  155.1882 C.ar    1  UNL1        0.1396
     35 N         146.1663  143.0297  154.5336 N.ar    1  UNL1       -0.1335
     36 N         147.4373  143.5861  153.9637 N.ar    1  UNL1       -0.1277
     37 C         148.5432  142.6189  154.2660 C.ar    1  UNL1        0.1807
     38 N         147.9556  141.4648  155.0228 N.ar    1  UNL1       -0.3234
     39 H         148.4478  140.6786  155.3530 H       1  UNL1        0.1686
     40 C         149.9838  142.7778  153.8795 C.ar    1  UNL1        0.1169
     41 C         150.9881  141.7400  154.2850 C.ar    1  UNL1        0.0223
     42 C         152.4287  141.8990  153.8984 C.ar    1  UNL1        0.0032
     43 C         152.8650  143.0959  153.1063 C.ar    1  UNL1        0.0207
     44 C         151.8607  144.1337  152.7009 C.ar    1  UNL1        0.0989
     45 N         150.4201  143.9747  153.0875 N.ar    1  UNL1       -0.2407
@<TRIPOS>BOND
     1     7     8    1
     2     8     9   ar
     3     9    10   ar
     4    10    11   ar
     5    11    12   ar
     6    12    13   ar
     7    13    14   ar
     8    14    21    1
     9    21    22   ar
    10    22    23   ar
    11    23    24   ar
    12    24    25   ar
    13    25    26   ar
    14    14    15   ar
    15    15     1    1
    16     1     2   ar
    17     2     3   ar
    18     3     4   ar
    19     4    27    1
    20    27    28    1
    21    28    29    1
    22    29    30    1
    23    30    31    1
    24    31    34    1
    25    34    35   ar
    26    35    36   ar
    27    36    37   ar
    28    37    40    1
    29    40    41   ar
    30    41    42   ar
    31    42    43   ar
    32    43    44   ar
    33    44    45   ar
    34    37    38   ar
    35    31    32    1
    36    32    33    1
    37     4     5   ar
    38     5     6   ar
    39    15    16   ar
    40    16    17   ar
    41    17    18   ar
    42    18    19   ar
    43    19    20   ar
    44    20     8   ar
    45    20    11   ar
    46    17    12   ar
    47    26    21   ar
    48     6     1   ar
    49    33    28    1
    50    38    34   ar
    51    45    40   ar
    52    38    39    1
@<TRIPOS>MOLECULE
*****
 45 52 0 0 0
SMALL
GASTEIGER

@<TRIPOS>ATOM
      1 C         141.3538  138.8478  161.7678 C.ar    1  UNL1        0.0176
      2 C         142.5774  138.0239  161.4960 C.ar    1  UNL1        0.0012
      3 C         142.9688  137.7056  160.0833 C.ar    1  UNL1       -0.0029
      4 C         142.1364  138.2112  158.9425 C.ar    1  UNL1       -0.0061
      5 C         140.9128  139.0351  159.2143 C.ar    1  UNL1       -0.0029
      6 C         140.5215  139.3534  160.6270 C.ar    1  UNL1        0.0012
      7 C         137.4263  139.5164  170.4383 C.3     1  UNL1        0.0742
      8 C         138.4698  139.9412  169.4480 C.ar    1  UNL1        0.1475
      9 N         139.5475  140.9575  169.6839 N.ar    1  UNL1       -0.1330
     10 N         140.3625  141.0687  168.4296 N.ar    1  UNL1       -0.1287
     11 C         139.7885  140.1211  167.4183 C.ar    1  UNL1        0.1715
     12 C         140.1798  139.8028  166.0057 C.ar    1  UNL1        0.0540
     13 C         141.3496  140.4996  165.3763 C.ar    1  UNL1        0.0061
     14 C         141.7409  140.1812  163.9637 C.ar    1  UNL1        0.0178
     15 C         140.9624  139.1661  163.1805 C.ar    1  UNL1        0.0812
     16 N         139.7927  138.4693  163.8098 N.ar    1  UNL1       -0.2452
     17 C         139.4013  138.7876  165.2225 C.ar    1  UNL1        0.0857
     18 C         138.2316  138.0909  165.8518 C.ar    1  UNL1        0.0383
     19 C         137.8402  138.4092  167.2645 C.ar    1  UNL1        0.0841
     20 N         138.6187  139.4244  168.0477 N.ar    1  UNL1       -0.2758
     21 C         142.9107  140.8781  163.3344 C.ar    1  UNL1        0.0015
     22 C         144.3058  140.5513  163.7780 C.ar    1  UNL1        0.0000
     23 C         145.4755  141.2482  163.1487 C.ar    1  UNL1        0.0000
     24 C         145.2501  142.2719  162.0756 C.ar    1  UNL1        0.0000
     25 C         143.8550  142.5986  161.6320 C.ar    1  UNL1        0.0000
     26 C         142.6853  141.9017  162.2614 C.ar    1  UNL1        0.0000
     27 C         142.5277  137.8929  157.5299 C.3     1  UNL1        0.0991
     28 N         142.4498  136.4807  157.0301 N.3     1  UNL1       -0.2689
     29 C         143.3150  135.4195  157.6426 C.3     1  UNL1        0.0728
     30 C         143.2371  134.0075  157.1429 C.3     1  UNL1        0.0249
     31 C         142.2938  133.6565  156.0306 C.3     1  UNL1        0.0613
     32 C         141.4285  134.7177  155.4181 C.3     1  UNL1        0.0249
     33 C         141.5065  136.1298  155.9179 C.3     1  UNL1        0.0728
     34 C         142.2158  132.2444  155.5308 C.ar    1  UNL1        0.1396
     35 N         143.3666  131.4195  155.0354 N.ar    1  UNL1       -0.1335
     36 N         142.8354  130.0745  154.6371 N.ar    1  UNL1       -0.1277
     37 C         141.3562  130.0680  154.8863 C.ar    1  UNL1        0.1807
     38 N         140.9733  131.4090  155.4386 N.ar    1  UNL1       -0.3234
     39 H         140.0658  131.6914  155.6955 H       1  UNL1        0.1686
     40 C         140.4237  128.9218  154.6285 C.ar    1  UNL1        0.1169
     41 C         139.7074  128.2658  155.7716 C.ar    1  UNL1        0.0223
     42 C         138.7749  127.1196  155.5137 C.ar    1  UNL1        0.0032
     43 C         138.5586  126.6293  154.1127 C.ar    1  UNL1        0.0207
     44 C         139.2749  127.2852  152.9696 C.ar    1  UNL1        0.0989
     45 N         140.2075  128.4315  153.2275 N.ar    1  UNL1       -0.2407
@<TRIPOS>BOND
     1     7     8    1
     2     8     9   ar
     3     9    10   ar
     4    10    11   ar
     5    11    12   ar
     6    12    13   ar
     7    13    14   ar
     8    14    21    1
     9    21    22   ar
    10    22    23   ar
    11    23    24   ar
    12    24    25   ar
    13    25    26   ar
    14    14    15   ar
    15    15     1    1
    16     1     2   ar
    17     2     3   ar
    18     3     4   ar
    19     4    27    1
    20    27    28    1
    21    28    29    1
    22    29    30    1
    23    30    31    1
    24    31    34    1
    25    34    35   ar
    26    35    36   ar
    27    36    37   ar
    28    37    40    1
    29    40    41   ar
    30    41    42   ar
    31    42    43   ar
    32    43    44   ar
    33    44    45   ar
    34    37    38   ar
    35    31    32    1
    36    32    33    1
    37     4     5   ar
    38     5     6   ar
    39    15    16   ar
    40    16    17   ar
    41    17    18   ar
    42    18    19   ar
    43    19    20   ar
    44    20     8   ar
    45    20    11   ar
    46    17    12   ar
    47    26    21   ar
    48     6     1   ar
    49    33    28    1
    50    38    34   ar
    51    45    40   ar
    52    38    39    1
@<TRIPOS>MOLECULE
*****
 45 52 0 0 0
SMALL
GASTEIGER

@<TRIPOS>ATOM
      1 C         143.3579  136.8050  156.2597 C.ar    1  UNL1        0.0176
      2 C         142.7133  137.6381  157.3275 C.ar    1  UNL1        0.0012
      3 C         143.0836  139.0842  157.4764 C.ar    1  UNL1       -0.0029
      4 C         144.0984  139.6969  156.5574 C.ar    1  UNL1       -0.0061
      5 C         144.7430  138.8637  155.4895 C.ar    1  UNL1       -0.0029
      6 C         144.3727  137.4178  155.3407 C.ar    1  UNL1        0.0012
      7 C         142.6093  127.2946  156.4650 C.3     1  UNL1        0.0742
      8 C         142.1005  128.6287  156.0051 C.ar    1  UNL1        0.1475
      9 N         140.8967  128.8633  155.1416 N.ar    1  UNL1       -0.1330
     10 N         140.7584  130.3419  154.9308 N.ar    1  UNL1       -0.1287
     11 C         141.8768  131.0212  155.6641 C.ar    1  UNL1        0.1715
     12 C         142.2471  132.4672  155.8130 C.ar    1  UNL1        0.0540
     13 C         141.4176  133.5260  155.1490 C.ar    1  UNL1        0.0061
     14 C         141.7879  134.9719  155.2979 C.ar    1  UNL1        0.0178
     15 C         142.9876  135.3590  156.1108 C.ar    1  UNL1        0.0812
     16 N         143.8170  134.3002  156.7747 N.ar    1  UNL1       -0.2452
     17 C         143.4468  132.8542  156.6259 C.ar    1  UNL1        0.0857
     18 C         144.2762  131.7955  157.2898 C.ar    1  UNL1        0.0383
     19 C         143.9060  130.3495  157.1409 C.ar    1  UNL1        0.0841
     20 N         142.7062  129.9624  156.3280 N.ar    1  UNL1       -0.2758
     21 C         140.9584  136.0308  154.6339 C.ar    1  UNL1        0.0015
     22 C         139.7591  136.5946  155.3367 C.ar    1  UNL1        0.0000
     23 C         138.9297  137.6533  154.6727 C.ar    1  UNL1        0.0000
     24 C         139.2994  138.1483  153.3058 C.ar    1  UNL1        0.0000
     25 C         140.4987  137.5845  152.6030 C.ar    1  UNL1        0.0000
     26 C         141.3281  136.5257  153.2671 C.ar    1  UNL1        0.0000
     27 C         144.4687  141.1428  156.7062 C.3     1  UNL1        0.0991
     28 N         143.4518  142.2099  156.4279 N.3     1  UNL1       -0.2689
     29 C         142.6806  142.1939  155.1414 C.3     1  UNL1        0.0728
     30 C         141.6638  143.2609  154.8633 C.3     1  UNL1        0.0249
     31 C         141.4180  144.3440  155.8716 C.3     1  UNL1        0.0613
     32 C         142.1891  144.3599  157.1581 C.3     1  UNL1        0.0249
     33 C         143.2060  143.2928  157.4363 C.3     1  UNL1        0.0728
     34 C         140.4012  145.4109  155.5934 C.ar    1  UNL1        0.1396
     35 N         138.9171  145.2126  155.5031 N.ar    1  UNL1       -0.1335
     36 N         138.2885  146.5427  155.2106 N.ar    1  UNL1       -0.1277
     37 C         139.3841  147.5632  155.1201 C.ar    1  UNL1        0.1807
     38 N         140.6898  146.8638  155.3567 N.ar    1  UNL1       -0.3234
     39 H         141.5799  147.2844  155.3567 H       1  UNL1        0.1686
     40 C         139.2055  149.0263  154.8419 C.ar    1  UNL1        0.1169
     41 C         138.6172  149.9229  155.8908 C.ar    1  UNL1        0.0223
     42 C         138.4386  151.3860  155.6126 C.ar    1  UNL1        0.0032
     43 C         138.8482  151.9526  154.2854 C.ar    1  UNL1        0.0207
     44 C         139.4364  151.0560  153.2365 C.ar    1  UNL1        0.0989
     45 N         139.6150  149.5928  153.5148 N.ar    1  UNL1       -0.2407
@<TRIPOS>BOND
     1     7     8    1
     2     8     9   ar
     3     9    10   ar
     4    10    11   ar
     5    11    12   ar
     6    12    13   ar
     7    13    14   ar
     8    14    21    1
     9    21    22   ar
    10    22    23   ar
    11    23    24   ar
    12    24    25   ar
    13    25    26   ar
    14    14    15   ar
    15    15     1    1
    16     1     2   ar
    17     2     3   ar
    18     3     4   ar
    19     4    27    1
    20    27    28    1
    21    28    29    1
    22    29    30    1
    23    30    31    1
    24    31    34    1
    25    34    35   ar
    26    35    36   ar
    27    36    37   ar
    28    37    40    1
    29    40    41   ar
    30    41    42   ar
    31    42    43   ar
    32    43    44   ar
    33    44    45   ar
    34    37    38   ar
    35    31    32    1
    36    32    33    1
    37     4     5   ar
    38     5     6   ar
    39    15    16   ar
    40    16    17   ar
    41    17    18   ar
    42    18    19   ar
    43    19    20   ar
    44    20     8   ar
    45    20    11   ar
    46    17    12   ar
    47    26    21   ar
    48     6     1   ar
    49    33    28    1
    50    38    34   ar
    51    45    40   ar
    52    38    39    1
@<TRIPOS>MOLECULE
*****
 45 52 0 0 0
SMALL
GASTEIGER

@<TRIPOS>ATOM
      1 C         141.2307  141.5100  157.2325 C.ar    1  UNL1        0.0176
      2 C         140.4949  140.2788  156.7938 C.ar    1  UNL1        0.0012
      3 C         139.3735  139.7373  157.6300 C.ar    1  UNL1       -0.0029
      4 C         138.9880  140.4271  158.9050 C.ar    1  UNL1       -0.0061
      5 C         139.7239  141.6584  159.3437 C.ar    1  UNL1       -0.0029
      6 C         140.8452  142.1998  158.5075 C.ar    1  UNL1        0.0012
      7 C         149.4758  143.6323  152.9239 C.3     1  UNL1        0.0742
      8 C         148.0028  143.8585  153.0947 C.ar    1  UNL1        0.1475
      9 N         147.1693  144.8495  152.3376 N.ar    1  UNL1       -0.1330
     10 N         145.7561  144.7369  152.8276 N.ar    1  UNL1       -0.1287
     11 C         145.7162  143.6763  153.8876 C.ar    1  UNL1        0.1715
     12 C         144.5948  143.1347  154.7238 C.ar    1  UNL1        0.0540
     13 C         143.2063  143.6776  154.5587 C.ar    1  UNL1        0.0061
     14 C         142.0849  143.1360  155.3950 C.ar    1  UNL1        0.0178
     15 C         142.3522  142.0516  156.3963 C.ar    1  UNL1        0.0812
     16 N         143.7406  141.5088  156.5613 N.ar    1  UNL1       -0.2452
     17 C         144.8620  142.0503  155.7251 C.ar    1  UNL1        0.0857
     18 C         146.2505  141.5075  155.8902 C.ar    1  UNL1        0.0383
     19 C         147.3719  142.0490  155.0539 C.ar    1  UNL1        0.0841
     20 N         147.1047  143.1335  154.0526 N.ar    1  UNL1       -0.2758
     21 C         140.6964  143.6789  155.2298 C.ar    1  UNL1        0.0015
     22 C         140.2825  144.9173  155.9681 C.ar    1  UNL1        0.0000
     23 C         138.8940  145.4601  155.8029 C.ar    1  UNL1        0.0000
     24 C         137.9193  144.7646  154.8994 C.ar    1  UNL1        0.0000
     25 C         138.3332  143.5262  154.1612 C.ar    1  UNL1        0.0000
     26 C         139.7217  142.9834  154.3264 C.ar    1  UNL1        0.0000
     27 C         137.8666  139.8856  159.7412 C.3     1  UNL1        0.0991
     28 N         138.0140  139.8050  161.2318 N.3     1  UNL1       -0.2689
     29 C         138.5969  138.5752  161.8625 C.3     1  UNL1        0.0728
     30 C         138.7442  138.4946  163.3530 C.3     1  UNL1        0.0249
     31 C         138.3086  139.6439  164.2130 C.3     1  UNL1        0.0613
     32 C         137.7257  140.8737  163.5823 C.3     1  UNL1        0.0249
     33 C         137.5784  140.9542  162.0917 C.3     1  UNL1        0.0728
     34 C         138.4559  139.5634  165.7035 C.ar    1  UNL1        0.1396
     35 N         137.5992  138.7545  166.6318 N.ar    1  UNL1       -0.1335
     36 N         138.0996  138.9687  168.0295 N.ar    1  UNL1       -0.1277
     37 C         139.2657  139.9101  167.9651 C.ar    1  UNL1        0.1807
     38 N         139.4859  140.2776  166.5276 N.ar    1  UNL1       -0.3234
     39 H         140.1839  140.8815  166.1851 H       1  UNL1        0.1686
     40 C         140.0703  140.3982  169.1331 C.ar    1  UNL1        0.1169
     41 C         139.6018  141.5839  169.9236 C.ar    1  UNL1        0.0223
     42 C         140.4064  142.0720  171.0916 C.ar    1  UNL1        0.0032
     43 C         141.6796  141.3745  171.4692 C.ar    1  UNL1        0.0207
     44 C         142.1481  140.1889  170.6788 C.ar    1  UNL1        0.0989
     45 N         141.3434  139.7007  169.5107 N.ar    1  UNL1       -0.2407
@<TRIPOS>BOND
     1     7     8    1
     2     8     9   ar
     3     9    10   ar
     4    10    11   ar
     5    11    12   ar
     6    12    13   ar
     7    13    14   ar
     8    14    21    1
     9    21    22   ar
    10    22    23   ar
    11    23    24   ar
    12    24    25   ar
    13    25    26   ar
    14    14    15   ar
    15    15     1    1
    16     1     2   ar
    17     2     3   ar
    18     3     4   ar
    19     4    27    1
    20    27    28    1
    21    28    29    1
    22    29    30    1
    23    30    31    1
    24    31    34    1
    25    34    35   ar
    26    35    36   ar
    27    36    37   ar
    28    37    40    1
    29    40    41   ar
    30    41    42   ar
    31    42    43   ar
    32    43    44   ar
    33    44    45   ar
    34    37    38   ar
    35    31    32    1
    36    32    33    1
    37     4     5   ar
    38     5     6   ar
    39    15    16   ar
    40    16    17   ar
    41    17    18   ar
    42    18    19   ar
    43    19    20   ar
    44    20     8   ar
    45    20    11   ar
    46    17    12   ar
    47    26    21   ar
    48     6     1   ar
    49    33    28    1
    50    38    34   ar
    51    45    40   ar
    52    38    39    1
@<TRIPOS>MOLECULE
*****
 45 52 0 0 0
SMALL
GASTEIGER

@<TRIPOS>ATOM
      1 C         142.1250  139.4264  160.9191 C.ar    1  UNL1        0.0176
      2 C         140.8852  138.8110  160.3414 C.ar    1  UNL1        0.0012
      3 C         140.8648  138.3697  158.9079 C.ar    1  UNL1       -0.0029
      4 C         142.0844  138.5439  158.0522 C.ar    1  UNL1       -0.0061
      5 C         143.3243  139.1594  158.6299 C.ar    1  UNL1       -0.0029
      6 C         143.3446  139.6006  160.0634 C.ar    1  UNL1        0.0012
      7 C         142.9191  140.3769  170.3804 C.3     1  UNL1        0.0742
      8 C         142.5675  140.9540  169.0412 C.ar    1  UNL1        0.1475
      9 N         142.0695  142.3453  168.7840 N.ar    1  UNL1       -0.1330
     10 N         141.8464  142.4923  167.3079 N.ar    1  UNL1       -0.1287
     11 C         142.2065  141.1918  166.6530 C.ar    1  UNL1        0.1715
     12 C         142.1861  140.7505  165.2195 C.ar    1  UNL1        0.0540
     13 C         141.7404  141.7012  164.1483 C.ar    1  UNL1        0.0061
     14 C         141.7201  141.2598  162.7148 C.ar    1  UNL1        0.0178
     15 C         142.1454  139.8677  162.3526 C.ar    1  UNL1        0.0812
     16 N         142.5910  138.9171  163.4238 N.ar    1  UNL1       -0.2452
     17 C         142.6114  139.3584  164.8573 C.ar    1  UNL1        0.0857
     18 C         143.0570  138.4077  165.9284 C.ar    1  UNL1        0.0383
     19 C         143.0774  138.8490  167.3620 C.ar    1  UNL1        0.0841
     20 N         142.6521  140.2411  167.7242 N.ar    1  UNL1       -0.2758
     21 C         141.2744  142.2106  161.6437 C.ar    1  UNL1        0.0015
     22 C         139.8288  142.2705  161.2479 C.ar    1  UNL1        0.0000
     23 C         139.3832  143.2212  160.1768 C.ar    1  UNL1        0.0000
     24 C         140.3832  144.1123  159.5013 C.ar    1  UNL1        0.0000
     25 C         141.8288  144.0524  159.8971 C.ar    1  UNL1        0.0000
     26 C         142.2744  143.1016  160.9683 C.ar    1  UNL1        0.0000
     27 C         142.0641  138.1026  156.6187 C.3     1  UNL1        0.0991
     28 N         142.0285  136.6407  156.2845 N.3     1  UNL1       -0.2689
     29 C         141.0798  136.1330  155.2394 C.3     1  UNL1        0.0728
     30 C         141.0443  134.6713  154.9052 C.3     1  UNL1        0.0249
     31 C         141.9576  133.7169  155.6162 C.3     1  UNL1        0.0613
     32 C         142.9063  134.2246  156.6613 C.3     1  UNL1        0.0249
     33 C         142.9418  135.6865  156.9954 C.3     1  UNL1        0.0728
     34 C         141.9221  132.2552  155.2820 C.ar    1  UNL1        0.1396
     35 N         143.1140  131.3744  155.0505 N.ar    1  UNL1       -0.1335
     36 N         142.6171  129.9923  154.7461 N.ar    1  UNL1       -0.1277
     37 C         141.1179  130.0187  154.7894 C.ar    1  UNL1        0.1807
     38 N         140.6884  131.4172  155.1206 N.ar    1  UNL1       -0.3234
     39 H         139.7598  131.7302  155.2155 H       1  UNL1        0.1686
     40 C         140.2080  128.8517  154.5446 C.ar    1  UNL1        0.1169
     41 C         139.6191  128.1036  155.7038 C.ar    1  UNL1        0.0223
     42 C         138.7091  126.9365  155.4588 C.ar    1  UNL1        0.0032
     43 C         138.3882  126.5175  154.0547 C.ar    1  UNL1        0.0207
     44 C         138.9771  127.2655  152.8956 C.ar    1  UNL1        0.0989
     45 N         139.8871  128.4326  153.1405 N.ar    1  UNL1       -0.2407
@<TRIPOS>BOND
     1     7     8    1
     2     8     9   ar
     3     9    10   ar
     4    10    11   ar
     5    11    12   ar
     6    12    13   ar
     7    13    14   ar
     8    14    21    1
     9    21    22   ar
    10    22    23   ar
    11    23    24   ar
    12    24    25   ar
    13    25    26   ar
    14    14    15   ar
    15    15     1    1
    16     1     2   ar
    17     2     3   ar
    18     3     4   ar
    19     4    27    1
    20    27    28    1
    21    28    29    1
    22    29    30    1
    23    30    31    1
    24    31    34    1
    25    34    35   ar
    26    35    36   ar
    27    36    37   ar
    28    37    40    1
    29    40    41   ar
    30    41    42   ar
    31    42    43   ar
    32    43    44   ar
    33    44    45   ar
    34    37    38   ar
    35    31    32    1
    36    32    33    1
    37     4     5   ar
    38     5     6   ar
    39    15    16   ar
    40    16    17   ar
    41    17    18   ar
    42    18    19   ar
    43    19    20   ar
    44    20     8   ar
    45    20    11   ar
    46    17    12   ar
    47    26    21   ar
    48     6     1   ar
    49    33    28    1
    50    38    34   ar
    51    45    40   ar
    52    38    39    1
@<TRIPOS>MOLECULE
*****
 45 52 0 0 0
SMALL
GASTEIGER

@<TRIPOS>ATOM
      1 C         141.7213  140.2295  157.2245 C.ar    1  UNL1        0.0176
      2 C         141.5304  138.9063  157.9045 C.ar    1  UNL1        0.0012
      3 C         140.3141  138.6653  158.7487 C.ar    1  UNL1       -0.0029
      4 C         139.2887  139.7477  158.9128 C.ar    1  UNL1       -0.0061
      5 C         139.4795  141.0710  158.2327 C.ar    1  UNL1       -0.0029
      6 C         140.6959  141.3119  157.3886 C.ar    1  UNL1        0.0012
      7 C         150.1716  142.6407  153.5059 C.3     1  UNL1        0.0742
      8 C         148.8223  142.0017  153.3603 C.ar    1  UNL1        0.1475
      9 N         148.2874  141.3434  152.1232 N.ar    1  UNL1       -0.1330
     10 N         146.9056  140.8437  152.4245 N.ar    1  UNL1       -0.1287
     11 C         146.5864  141.1933  153.8478 C.ar    1  UNL1        0.1715
     12 C         145.3701  140.9523  154.6920 C.ar    1  UNL1        0.0540
     13 C         144.1855  140.2366  154.1137 C.ar    1  UNL1        0.0061
     14 C         142.9693  139.9957  154.9578 C.ar    1  UNL1        0.0178
     15 C         142.9376  140.4705  156.3804 C.ar    1  UNL1        0.0812
     16 N         144.1221  141.1861  156.9587 N.ar    1  UNL1       -0.2452
     17 C         145.3385  141.4271  156.1145 C.ar    1  UNL1        0.0857
     18 C         146.5230  142.1427  156.6929 C.ar    1  UNL1        0.0383
     19 C         147.7394  142.3837  155.8487 C.ar    1  UNL1        0.0841
     20 N         147.7710  141.9089  154.4262 N.ar    1  UNL1       -0.2758
     21 C         141.7846  139.2800  154.3794 C.ar    1  UNL1        0.0015
     22 C         141.6855  137.7870  154.4846 C.ar    1  UNL1        0.0000
     23 C         140.5009  137.0714  153.9062 C.ar    1  UNL1        0.0000
     24 C         139.4154  137.8488  153.2225 C.ar    1  UNL1        0.0000
     25 C         139.5146  139.3418  153.1172 C.ar    1  UNL1        0.0000
     26 C         140.6992  140.0574  153.6957 C.ar    1  UNL1        0.0000
     27 C         138.0723  139.5068  159.7569 C.3     1  UNL1        0.0991
     28 N         138.1870  139.4988  161.2525 N.3     1  UNL1       -0.2689
     29 C         138.7471  138.2979  161.9554 C.3     1  UNL1        0.0728
     30 C         138.8617  138.2899  163.4509 C.3     1  UNL1        0.0249
     31 C         138.4163  139.4830  164.2437 C.3     1  UNL1        0.0613
     32 C         137.8563  140.6839  163.5408 C.3     1  UNL1        0.0249
     33 C         137.7416  140.6918  162.0452 C.3     1  UNL1        0.0728
     34 C         138.5310  139.4750  165.7392 C.ar    1  UNL1        0.1396
     35 N         137.6183  138.7584  166.6897 N.ar    1  UNL1       -0.1335
     36 N         138.1016  139.0227  168.0848 N.ar    1  UNL1       -0.1277
     37 C         139.3131  139.9028  167.9966 C.ar    1  UNL1        0.1807
     38 N         139.5784  140.1824  166.5470 N.ar    1  UNL1       -0.3234
     39 H         140.3114  140.7333  166.1886 H       1  UNL1        0.1686
     40 C         140.1179  140.4137  169.1547 C.ar    1  UNL1        0.1169
     41 C         139.6348  141.5969  169.9401 C.ar    1  UNL1        0.0223
     42 C         140.4397  142.1078  171.0981 C.ar    1  UNL1        0.0032
     43 C         141.7278  141.4355  171.4709 C.ar    1  UNL1        0.0207
     44 C         142.2109  140.2524  170.6856 C.ar    1  UNL1        0.0989
     45 N         141.4060  139.7414  169.5274 N.ar    1  UNL1       -0.2407
@<TRIPOS>BOND
     1     7     8    1
     2     8     9   ar
     3     9    10   ar
     4    10    11   ar
     5    11    12   ar
     6    12    13   ar
     7    13    14   ar
     8    14    21    1
     9    21    22   ar
    10    22    23   ar
    11    23    24   ar
    12    24    25   ar
    13    25    26   ar
    14    14    15   ar
    15    15     1    1
    16     1     2   ar
    17     2     3   ar
    18     3     4   ar
    19     4    27    1
    20    27    28    1
    21    28    29    1
    22    29    30    1
    23    30    31    1
    24    31    34    1
    25    34    35   ar
    26    35    36   ar
    27    36    37   ar
    28    37    40    1
    29    40    41   ar
    30    41    42   ar
    31    42    43   ar
    32    43    44   ar
    33    44    45   ar
    34    37    38   ar
    35    31    32    1
    36    32    33    1
    37     4     5   ar
    38     5     6   ar
    39    15    16   ar
    40    16    17   ar
    41    17    18   ar
    42    18    19   ar
    43    19    20   ar
    44    20     8   ar
    45    20    11   ar
    46    17    12   ar
    47    26    21   ar
    48     6     1   ar
    49    33    28    1
    50    38    34   ar
    51    45    40   ar
    52    38    39    1
@<TRIPOS>MOLECULE
*****
 45 52 0 0 0
SMALL
GASTEIGER

@<TRIPOS>ATOM
      1 C         140.8753  140.2752  162.0542 C.ar    1  UNL1        0.0176
      2 C         141.7417  139.1568  161.5562 C.ar    1  UNL1        0.0012
      3 C         142.0766  139.0600  160.0972 C.ar    1  UNL1       -0.0029
      4 C         141.5449  140.0818  159.1363 C.ar    1  UNL1       -0.0061
      5 C         140.6784  141.2003  159.6345 C.ar    1  UNL1       -0.0029
      6 C         140.3436  141.2970  161.0934 C.ar    1  UNL1        0.0012
      7 C         137.4472  139.4250  170.9185 C.3     1  UNL1        0.0742
      8 C         138.3741  140.0853  169.9413 C.ar    1  UNL1        0.1475
      9 N         139.3469  141.1837  170.2529 N.ar    1  UNL1       -0.1330
     10 N         140.0650  141.5404  168.9851 N.ar    1  UNL1       -0.1287
     11 C         139.5359  140.6624  167.8900 C.ar    1  UNL1        0.1715
     12 C         139.8708  140.5656  166.4311 C.ar    1  UNL1        0.0540
     13 C         140.9158  141.4649  165.8401 C.ar    1  UNL1        0.0061
     14 C         141.2506  141.3681  164.3812 C.ar    1  UNL1        0.0178
     15 C         140.5404  140.3720  163.5132 C.ar    1  UNL1        0.0812
     16 N         139.4955  139.4727  164.1041 N.ar    1  UNL1       -0.2452
     17 C         139.1606  139.5695  165.5631 C.ar    1  UNL1        0.0857
     18 C         138.1156  138.6702  166.1540 C.ar    1  UNL1        0.0383
     19 C         137.7807  138.7670  167.6130 C.ar    1  UNL1        0.0841
     20 N         138.4909  139.7631  168.4810 N.ar    1  UNL1       -0.2758
     21 C         142.2956  142.2674  163.7903 C.ar    1  UNL1        0.0015
     22 C         143.6902  141.7578  163.5770 C.ar    1  UNL1        0.0000
     23 C         144.7351  142.6572  162.9861 C.ar    1  UNL1        0.0000
     24 C         144.3856  144.0662  162.6085 C.ar    1  UNL1        0.0000
     25 C         142.9910  144.5758  162.8218 C.ar    1  UNL1        0.0000
     26 C         141.9460  143.6764  163.4127 C.ar    1  UNL1        0.0000
     27 C         141.8798  139.9851  157.6774 C.3     1  UNL1        0.0991
     28 N         141.8565  138.6524  156.9893 N.3     1  UNL1       -0.2689
     29 C         140.5466  138.0214  156.6206 C.3     1  UNL1        0.0728
     30 C         140.5233  136.6888  155.9326 C.3     1  UNL1        0.0249
     31 C         141.8100  135.9870  155.6132 C.3     1  UNL1        0.0613
     32 C         143.1199  136.6180  155.9819 C.3     1  UNL1        0.0249
     33 C         143.1432  137.9507  156.6700 C.3     1  UNL1        0.0728
     34 C         141.7868  134.6544  154.9252 C.ar    1  UNL1        0.1396
     35 N         142.0964  134.4031  153.4792 N.ar    1  UNL1       -0.1335
     36 N         141.9508  132.9324  153.2227 N.ar    1  UNL1       -0.1277
     37 C         141.5512  132.2746  154.5102 C.ar    1  UNL1        0.1807
     38 N         141.4498  133.3389  155.5624 N.ar    1  UNL1       -0.3234
     39 H         141.2051  133.1986  156.5056 H       1  UNL1        0.1686
     40 C         141.2975  130.8099  154.7103 C.ar    1  UNL1        0.1169
     41 C         139.8914  130.2877  154.7273 C.ar    1  UNL1        0.0223
     42 C         139.6377  128.8229  154.9275 C.ar    1  UNL1        0.0032
     43 C         140.7901  127.8803  155.1107 C.ar    1  UNL1        0.0207
     44 C         142.1962  128.4025  155.0937 C.ar    1  UNL1        0.0989
     45 N         142.4499  129.8674  154.8935 N.ar    1  UNL1       -0.2407
@<TRIPOS>BOND
     1     7     8    1
     2     8     9   ar
     3     9    10   ar
     4    10    11   ar
     5    11    12   ar
     6    12    13   ar
     7    13    14   ar
     8    14    21    1
     9    21    22   ar
    10    22    23   ar
    11    23    24   ar
    12    24    25   ar
    13    25    26   ar
    14    14    15   ar
    15    15     1    1
    16     1     2   ar
    17     2     3   ar
    18     3     4   ar
    19     4    27    1
    20    27    28    1
    21    28    29    1
    22    29    30    1
    23    30    31    1
    24    31    34    1
    25    34    35   ar
    26    35    36   ar
    27    36    37   ar
    28    37    40    1
    29    40    41   ar
    30    41    42   ar
    31    42    43   ar
    32    43    44   ar
    33    44    45   ar
    34    37    38   ar
    35    31    32    1
    36    32    33    1
    37     4     5   ar
    38     5     6   ar
    39    15    16   ar
    40    16    17   ar
    41    17    18   ar
    42    18    19   ar
    43    19    20   ar
    44    20     8   ar
    45    20    11   ar
    46    17    12   ar
    47    26    21   ar
    48     6     1   ar
    49    33    28    1
    50    38    34   ar
    51    45    40   ar
    52    38    39    1
@<TRIPOS>MOLECULE
*****
 45 52 0 0 0
SMALL
GASTEIGER

@<TRIPOS>ATOM
      1 C         139.2277  143.6169  156.9190 C.ar    1  UNL1        0.0176
      2 C         140.2484  143.1512  157.9144 C.ar    1  UNL1        0.0012
      3 C         140.0492  141.8548  158.6424 C.ar    1  UNL1       -0.0029
      4 C         138.8291  141.0242  158.3748 C.ar    1  UNL1       -0.0061
      5 C         137.8083  141.4900  157.3792 C.ar    1  UNL1       -0.0029
      6 C         138.0076  142.7863  156.6513 C.ar    1  UNL1        0.0012
      7 C         139.4441  152.6346  153.8071 C.3     1  UNL1        0.0742
      8 C         139.8118  151.1907  153.6336 C.ar    1  UNL1        0.1475
      9 N         140.5992  150.6120  152.4957 N.ar    1  UNL1       -0.1330
     10 N         140.7308  149.1357  152.7264 N.ar    1  UNL1       -0.1287
     11 C         140.0246  148.8020  154.0070 C.ar    1  UNL1        0.1715
     12 C         139.8254  147.5057  154.7350 C.ar    1  UNL1        0.0540
     13 C         140.3933  146.2357  154.1743 C.ar    1  UNL1        0.0061
     14 C         140.1941  144.9394  154.9023 C.ar    1  UNL1        0.0178
     15 C         139.4269  144.9132  156.1910 C.ar    1  UNL1        0.0812
     16 N         138.8590  146.1832  156.7517 N.ar    1  UNL1       -0.2452
     17 C         139.0582  147.4796  156.0237 C.ar    1  UNL1        0.0857
     18 C         138.4903  148.7495  156.5844 C.ar    1  UNL1        0.0383
     19 C         138.6895  150.0459  155.8564 C.ar    1  UNL1        0.0841
     20 N         139.4567  150.0721  154.5677 N.ar    1  UNL1       -0.2758
     21 C         140.7620  143.6694  154.3415 C.ar    1  UNL1        0.0015
     22 C         142.1762  143.2782  154.6533 C.ar    1  UNL1        0.0000
     23 C         142.7441  142.0083  154.0925 C.ar    1  UNL1        0.0000
     24 C         141.8978  141.1293  153.2199 C.ar    1  UNL1        0.0000
     25 C         140.4837  141.5204  152.9081 C.ar    1  UNL1        0.0000
     26 C         139.9158  142.7905  153.4689 C.ar    1  UNL1        0.0000
     27 C         138.6299  139.7279  159.1027 C.3     1  UNL1        0.0991
     28 N         138.6541  139.6985  160.6022 N.3     1  UNL1       -0.2689
     29 C         137.7599  140.6137  161.3850 C.3     1  UNL1        0.0728
     30 C         137.7842  140.5842  162.8844 C.3     1  UNL1        0.0249
     31 C         138.7027  139.6394  163.6013 C.3     1  UNL1        0.0613
     32 C         139.5969  138.7241  162.8185 C.3     1  UNL1        0.0249
     33 C         139.5726  138.7537  161.3190 C.3     1  UNL1        0.0728
     34 C         138.7270  139.6099  165.1007 C.ar    1  UNL1        0.1396
     35 N         137.8894  138.7284  165.9790 N.ar    1  UNL1       -0.1335
     36 N         138.2379  139.0303  167.4063 N.ar    1  UNL1       -0.1277
     37 C         139.2910  140.0985  167.4103 C.ar    1  UNL1        0.1807
     38 N         139.5933  140.4567  165.9854 N.ar    1  UNL1       -0.3234
     39 H         140.2457  141.1294  165.6837 H       1  UNL1        0.1686
     40 C         139.9296  140.7025  168.6257 C.ar    1  UNL1        0.1169
     41 C         140.4017  142.1260  168.5959 C.ar    1  UNL1        0.0223
     42 C         141.0404  142.7299  169.8114 C.ar    1  UNL1        0.0032
     43 C         141.2070  141.9104  171.0566 C.ar    1  UNL1        0.0207
     44 C         140.7349  140.4870  171.0864 C.ar    1  UNL1        0.0989
     45 N         140.0962  139.8830  169.8709 N.ar    1  UNL1       -0.2407
@<TRIPOS>BOND
     1     7     8    1
     2     8     9   ar
     3     9    10   ar
     4    10    11   ar
     5    11    12   ar
     6    12    13   ar
     7    13    14   ar
     8    14    21    1
     9    21    22   ar
    10    22    23   ar
    11    23    24   ar
    12    24    25   ar
    13    25    26   ar
    14    14    15   ar
    15    15     1    1
    16     1     2   ar
    17     2     3   ar
    18     3     4   ar
    19     4    27    1
    20    27    28    1
    21    28    29    1
    22    29    30    1
    23    30    31    1
    24    31    34    1
    25    34    35   ar
    26    35    36   ar
    27    36    37   ar
    28    37    40    1
    29    40    41   ar
    30    41    42   ar
    31    42    43   ar
    32    43    44   ar
    33    44    45   ar
    34    37    38   ar
    35    31    32    1
    36    32    33    1
    37     4     5   ar
    38     5     6   ar
    39    15    16   ar
    40    16    17   ar
    41    17    18   ar
    42    18    19   ar
    43    19    20   ar
    44    20     8   ar
    45    20    11   ar
    46    17    12   ar
    47    26    21   ar
    48     6     1   ar
    49    33    28    1
    50    38    34   ar
    51    45    40   ar
    52    38    39    1
@<TRIPOS>MOLECULE
*****
 45 52 0 0 0
SMALL
GASTEIGER

@<TRIPOS>ATOM
      1 C         140.9122  139.7749  161.5301 C.ar    1  UNL1        0.0176
      2 C         141.8496  138.7038  161.0570 C.ar    1  UNL1        0.0012
      3 C         142.1086  138.5281  159.5899 C.ar    1  UNL1       -0.0029
      4 C         141.4300  139.4236  158.5961 C.ar    1  UNL1       -0.0061
      5 C         140.4926  140.4947  159.0693 C.ar    1  UNL1       -0.0029
      6 C         140.2337  140.6704  160.5363 C.ar    1  UNL1        0.0012
      7 C         137.7632  139.6103  170.5360 C.3     1  UNL1        0.0742
      8 C         138.7311  140.1139  169.5067 C.ar    1  UNL1        0.1475
      9 N         139.8568  141.0749  169.7505 N.ar    1  UNL1       -0.1330
     10 N         140.5647  141.2998  168.4474 N.ar    1  UNL1       -0.1287
     11 C         139.8766  140.4779  167.3981 C.ar    1  UNL1        0.1715
     12 C         140.1355  140.3021  165.9311 C.ar    1  UNL1        0.0540
     13 C         141.2687  141.0351  165.2764 C.ar    1  UNL1        0.0061
     14 C         141.5276  140.8593  163.8094 C.ar    1  UNL1        0.0178
     15 C         140.6533  139.9506  162.9972 C.ar    1  UNL1        0.0812
     16 N         139.5201  139.2177  163.6518 N.ar    1  UNL1       -0.2452
     17 C         139.2612  139.3934  165.1189 C.ar    1  UNL1        0.0857
     18 C         138.1280  138.6606  165.7735 C.ar    1  UNL1        0.0383
     19 C         137.8691  138.8363  167.2406 C.ar    1  UNL1        0.0841
     20 N         138.7434  139.7450  168.0528 N.ar    1  UNL1       -0.2758
     21 C         142.6609  141.5923  163.1548 C.ar    1  UNL1        0.0015
     22 C         142.4097  142.9014  162.4670 C.ar    1  UNL1        0.0000
     23 C         143.5429  143.6343  161.8124 C.ar    1  UNL1        0.0000
     24 C         144.9275  143.0581  161.8456 C.ar    1  UNL1        0.0000
     25 C         145.1787  141.7489  162.5334 C.ar    1  UNL1        0.0000
     26 C         144.0454  141.0161  163.1880 C.ar    1  UNL1        0.0000
     27 C         141.6889  139.2479  157.1291 C.3     1  UNL1        0.0991
     28 N         141.9828  137.8843  156.5774 N.3     1  UNL1       -0.2689
     29 C         140.8562  136.9762  156.1823 C.3     1  UNL1        0.0728
     30 C         141.1501  135.6128  155.6307 C.3     1  UNL1        0.0249
     31 C         142.5707  135.1572  155.4741 C.3     1  UNL1        0.0613
     32 C         143.6973  136.0653  155.8693 C.3     1  UNL1        0.0249
     33 C         143.4034  137.4288  156.4209 C.3     1  UNL1        0.0728
     34 C         142.8647  133.7937  154.9225 C.ar    1  UNL1        0.1396
     35 N         142.5265  133.3085  153.5440 N.ar    1  UNL1       -0.1335
     36 N         143.0012  131.8909  153.4220 N.ar    1  UNL1       -0.1277
     37 C         143.6328  131.4998  154.7251 C.ar    1  UNL1        0.1807
     38 N         143.5484  132.6758  155.6525 N.ar    1  UNL1       -0.3234
     39 H         143.8830  132.7082  156.5778 H       1  UNL1        0.1686
     40 C         144.2418  130.1669  155.0448 C.ar    1  UNL1        0.1169
     41 C         144.8391  129.3331  153.9502 C.ar    1  UNL1        0.0223
     42 C         145.4481  128.0002  154.2700 C.ar    1  UNL1        0.0032
     43 C         145.4598  127.5009  155.6844 C.ar    1  UNL1        0.0207
     44 C         144.8626  128.3345  156.7790 C.ar    1  UNL1        0.0989
     45 N         144.2535  129.6676  156.4593 N.ar    1  UNL1       -0.2407
@<TRIPOS>BOND
     1     7     8    1
     2     8     9   ar
     3     9    10   ar
     4    10    11   ar
     5    11    12   ar
     6    12    13   ar
     7    13    14   ar
     8    14    21    1
     9    21    22   ar
    10    22    23   ar
    11    23    24   ar
    12    24    25   ar
    13    25    26   ar
    14    14    15   ar
    15    15     1    1
    16     1     2   ar
    17     2     3   ar
    18     3     4   ar
    19     4    27    1
    20    27    28    1
    21    28    29    1
    22    29    30    1
    23    30    31    1
    24    31    34    1
    25    34    35   ar
    26    35    36   ar
    27    36    37   ar
    28    37    40    1
    29    40    41   ar
    30    41    42   ar
    31    42    43   ar
    32    43    44   ar
    33    44    45   ar
    34    37    38   ar
    35    31    32    1
    36    32    33    1
    37     4     5   ar
    38     5     6   ar
    39    15    16   ar
    40    16    17   ar
    41    17    18   ar
    42    18    19   ar
    43    19    20   ar
    44    20     8   ar
    45    20    11   ar
    46    17    12   ar
    47    26    21   ar
    48     6     1   ar
    49    33    28    1
    50    38    34   ar
    51    45    40   ar
    52    38    39    1
