@<TRIPOS>MOLECULE
*****
 44 49 0 0 0
SMALL
GASTEIGER

@<TRIPOS>ATOM
      1 C         144.2885  142.6353  158.6750 C.ar    1  UNL1        0.1655
      2 N         144.7935  142.4332  160.0728 N.ar    1  UNL1       -0.2239
      3 C         143.7477  142.9398  161.0214 C.ar    1  UNL1        0.0907
      4 C         142.5963  143.4551  160.2097 C.ar    1  UNL1        0.0675
      5 S         142.9305  143.2670  158.7595 S.2     1  UNL1       -0.0499
      6 C         143.8375  142.9325  162.5186 C.ar    1  UNL1        0.0184
      7 C         144.0374  144.2185  163.2643 C.ar    1  UNL1        0.0038
      8 C         144.1272  144.2111  164.7616 C.ar    1  UNL1        0.0297
      9 C         144.0170  142.9176  165.5132 C.ar    1  UNL1        0.1401
     10 F         144.1068  142.9102  167.0105 F       1  UNL1       -0.2042
     11 C         143.8170  141.6316  164.7675 C.ar    1  UNL1        0.0297
     12 C         143.7273  141.6390  163.2702 C.ar    1  UNL1        0.0038
     13 C         141.3326  144.0536  160.7528 C.ar    1  UNL1        0.0932
     14 C         140.9557  145.4610  160.3964 C.ar    1  UNL1        0.0405
     15 C         139.6920  146.0595  160.9395 C.ar    1  UNL1        0.1034
     16 N         138.8053  145.2504  161.8389 N.ar    1  UNL1       -0.2120
     17 C         139.1822  143.8430  162.1953 C.ar    1  UNL1        0.2207
     18 N         140.4459  143.2445  161.6522 N.ar    1  UNL1       -0.2130
     19 N         138.2953  143.0339  163.0948 N.pl3   1  UNL1       -0.2825
     20 H         137.3474  142.9030  162.8634 H       1  UNL1        0.1551
     21 C         138.8527  142.4243  164.3469 C.ar    1  UNL1        0.0505
     22 C         138.4701  141.0271  164.7355 C.ar    1  UNL1        0.0159
     23 C         139.0276  140.4175  165.9875 C.ar    1  UNL1        0.0158
     24 C         139.9676  141.2053  166.8510 C.ar    1  UNL1        0.0480
     25 C         140.3502  142.6027  166.4624 C.ar    1  UNL1        0.0158
     26 C         139.7928  143.2122  165.2104 C.ar    1  UNL1        0.0159
     27 N         140.5251  140.5958  168.1032 N.pl3   1  UNL1       -0.3047
     28 C         139.7184  140.6099  169.3677 C.3     1  UNL1        0.1079
     29 C         140.2758  140.0004  170.6198 C.3     1  UNL1        0.0903
     30 N         141.6399  139.3768  170.6074 N.3     1  UNL1       -0.2946
     31 C         142.4467  139.3627  169.3429 C.3     1  UNL1        0.0903
     32 C         141.8893  139.9722  168.0908 C.3     1  UNL1        0.1079
     33 H         141.5218  138.4045  170.8922 H       1  UNL1        0.1233
     34 C         146.4674  142.6074  157.2603 C.2     1  UNL1        0.2271
     35 O         147.1953  143.3100  158.3677 O.2     1  UNL1       -0.2747
     36 N         145.0139  142.2700  157.4139 N.am    1  UNL1       -0.2641
     37 H         144.5361  141.8089  156.6871 H       1  UNL1        0.1567
     38 C         149.3694  141.1462  152.2161 C.3     1  UNL1        0.0896
     39 N         148.6439  141.5115  153.4772 N.3     1  UNL1       -0.2715
     40 C         149.4129  141.7493  154.7428 C.3     1  UNL1        0.0726
     41 C         148.6874  142.1146  156.0039 C.3     1  UNL1        0.0264
     42 C         147.1929  142.2421  155.9992 C.3     1  UNL1        0.0796
     43 C         146.4238  142.0042  154.7336 C.3     1  UNL1        0.0264
     44 C         147.1493  141.6389  153.4725 C.3     1  UNL1        0.0726
@<TRIPOS>BOND
     1    38    39    1
     2    39    40    1
     3    40    41    1
     4    41    42    1
     5    42    34    1
     6    34    35    2
     7    34    36   am
     8    36     1    1
     9     1     2   ar
    10     2     3   ar
    11     3     6    1
    12     6     7   ar
    13     7     8   ar
    14     8     9   ar
    15     9    10    1
    16     9    11   ar
    17    11    12   ar
    18     3     4   ar
    19     4    13    1
    20    13    14   ar
    21    14    15   ar
    22    15    16   ar
    23    16    17   ar
    24    17    19    1
    25    19    21    1
    26    21    22   ar
    27    22    23   ar
    28    23    24   ar
    29    24    27    1
    30    27    28    1
    31    28    29    1
    32    29    30    1
    33    30    31    1
    34    31    32    1
    35    24    25   ar
    36    25    26   ar
    37    17    18   ar
    38     4     5   ar
    39    42    43    1
    40    43    44    1
    41    44    39    1
    42     5     1   ar
    43    12     6   ar
    44    18    13   ar
    45    26    21   ar
    46    32    27    1
    47    36    37    1
    48    19    20    1
    49    30    33    1
@<TRIPOS>MOLECULE
*****
 44 49 0 0 0
SMALL
GASTEIGER

@<TRIPOS>ATOM
      1 C         138.4548  139.8493  158.8835 C.ar    1  UNL1        0.1655
      2 N         137.8531  139.7972  160.2566 N.ar    1  UNL1       -0.2239
      3 C         138.9591  139.5452  161.2380 C.ar    1  UNL1        0.0907
      4 C         140.2443  139.4415  160.4715 C.ar    1  UNL1        0.0675
      5 S         139.9327  139.6295  159.0163 S.2     1  UNL1       -0.0499
      6 C         138.8067  139.4189  162.7249 C.ar    1  UNL1        0.0184
      7 C         138.4172  140.6143  163.5431 C.ar    1  UNL1        0.0038
      8 C         138.2648  140.4879  165.0299 C.ar    1  UNL1        0.0297
      9 C         138.5020  139.1663  165.6986 C.ar    1  UNL1        0.1401
     10 F         138.3496  139.0401  167.1856 F       1  UNL1       -0.2042
     11 C         138.8915  137.9710  164.8804 C.ar    1  UNL1        0.0297
     12 C         139.0439  138.0973  163.3935 C.ar    1  UNL1        0.0038
     13 C         141.6027  139.1934  161.0573 C.ar    1  UNL1        0.0932
     14 C         142.3691  137.9608  160.6786 C.ar    1  UNL1        0.0405
     15 C         143.7276  137.7128  161.2644 C.ar    1  UNL1        0.1034
     16 N         144.3196  138.6973  162.2289 N.ar    1  UNL1       -0.2120
     17 C         143.5532  139.9298  162.6076 C.ar    1  UNL1        0.2207
     18 N         142.1947  140.1779  162.0218 N.ar    1  UNL1       -0.2130
     19 N         144.1452  140.9144  163.5722 N.pl3   1  UNL1       -0.2825
     20 H         144.9436  141.4319  163.3193 H       1  UNL1        0.1551
     21 C         143.5208  141.1103  164.9219 C.ar    1  UNL1        0.0505
     22 C         142.6781  140.0249  165.5230 C.ar    1  UNL1        0.0159
     23 C         142.0537  140.2208  166.8727 C.ar    1  UNL1        0.0158
     24 C         142.2720  141.5023  167.6212 C.ar    1  UNL1        0.0480
     25 C         143.1148  142.5878  167.0199 C.ar    1  UNL1        0.0158
     26 C         143.7391  142.3918  165.6703 C.ar    1  UNL1        0.0159
     27 N         141.6476  141.6983  168.9710 N.pl3   1  UNL1       -0.3047
     28 C         142.0256  140.7984  170.1100 C.3     1  UNL1        0.1079
     29 C         141.4012  140.9944  171.4597 C.3     1  UNL1        0.0903
     30 N         140.3988  142.0902  171.6704 N.3     1  UNL1       -0.2946
     31 C         140.0208  142.9900  170.5314 C.3     1  UNL1        0.0903
     32 C         140.6452  142.7941  169.1816 C.3     1  UNL1        0.1079
     33 H         140.7682  142.6891  172.4088 H       1  UNL1        0.1233
     34 C         137.3892  141.4786  157.1631 C.2     1  UNL1        0.2271
     35 O         137.8142  142.6452  158.0046 O.2     1  UNL1       -0.2747
     36 N         137.7094  140.0807  157.6025 N.am    1  UNL1       -0.2641
     37 H         137.4305  139.3150  157.0501 H       1  UNL1        0.1567
     38 C         134.4079  142.4039  152.0390 C.3     1  UNL1        0.0896
     39 N         135.1532  142.1726  153.3201 N.3     1  UNL1       -0.2715
     40 C         134.6200  141.2038  154.3335 C.3     1  UNL1        0.0726
     41 C         135.3654  140.9725  155.6145 C.3     1  UNL1        0.0264
     42 C         136.6438  141.7099  155.8821 C.3     1  UNL1        0.0796
     43 C         137.1770  142.6787  154.8686 C.3     1  UNL1        0.0264
     44 C         136.4317  142.9100  153.5876 C.3     1  UNL1        0.0726
@<TRIPOS>BOND
     1    38    39    1
     2    39    40    1
     3    40    41    1
     4    41    42    1
     5    42    34    1
     6    34    35    2
     7    34    36   am
     8    36     1    1
     9     1     2   ar
    10     2     3   ar
    11     3     6    1
    12     6     7   ar
    13     7     8   ar
    14     8     9   ar
    15     9    10    1
    16     9    11   ar
    17    11    12   ar
    18     3     4   ar
    19     4    13    1
    20    13    14   ar
    21    14    15   ar
    22    15    16   ar
    23    16    17   ar
    24    17    19    1
    25    19    21    1
    26    21    22   ar
    27    22    23   ar
    28    23    24   ar
    29    24    27    1
    30    27    28    1
    31    28    29    1
    32    29    30    1
    33    30    31    1
    34    31    32    1
    35    24    25   ar
    36    25    26   ar
    37    17    18   ar
    38     4     5   ar
    39    42    43    1
    40    43    44    1
    41    44    39    1
    42     5     1   ar
    43    12     6   ar
    44    18    13   ar
    45    26    21   ar
    46    32    27    1
    47    36    37    1
    48    19    20    1
    49    30    33    1
@<TRIPOS>MOLECULE
*****
 44 49 0 0 0
SMALL
GASTEIGER

@<TRIPOS>ATOM
      1 C         143.6430  139.9588  158.6952 C.ar    1  UNL1        0.1655
      2 N         144.1262  139.5295  160.0488 N.ar    1  UNL1       -0.2239
      3 C         142.9614  139.5755  160.9929 C.ar    1  UNL1        0.0907
      4 C         141.7584  140.0333  160.2227 C.ar    1  UNL1        0.0675
      5 S         142.1796  140.2702  158.8026 S.2     1  UNL1       -0.0499
      6 C         142.9939  139.2253  162.4510 C.ar    1  UNL1        0.0184
      7 C         143.9879  139.8864  163.3591 C.ar    1  UNL1        0.0038
      8 C         144.0204  139.5362  164.8173 C.ar    1  UNL1        0.0297
      9 C         143.0588  138.5248  165.3673 C.ar    1  UNL1        0.1401
     10 F         143.0913  138.1746  166.8256 F       1  UNL1       -0.2042
     11 C         142.0647  137.8637  164.4591 C.ar    1  UNL1        0.0297
     12 C         142.0323  138.2140  163.0010 C.ar    1  UNL1        0.0038
     13 C         140.3767  140.2213  160.7755 C.ar    1  UNL1        0.0932
     14 C         139.2239  139.4632  160.1869 C.ar    1  UNL1        0.0405
     15 C         137.8422  139.6512  160.7397 C.ar    1  UNL1        0.1034
     16 N         137.6133  140.5972  161.8810 N.ar    1  UNL1       -0.2120
     17 C         138.7661  141.3553  162.4695 C.ar    1  UNL1        0.2207
     18 N         140.1478  141.1673  161.9168 N.ar    1  UNL1       -0.2130
     19 N         138.5372  142.3014  163.6109 N.pl3   1  UNL1       -0.2825
     20 H         137.9781  143.1015  163.4825 H       1  UNL1        0.1551
     21 C         139.1601  142.0284  164.9478 C.ar    1  UNL1        0.0505
     22 C         139.1518  140.6375  165.5092 C.ar    1  UNL1        0.0159
     23 C         139.7747  140.3645  166.8461 C.ar    1  UNL1        0.0158
     24 C         140.4060  141.4825  167.6217 C.ar    1  UNL1        0.0480
     25 C         140.4143  142.8735  167.0603 C.ar    1  UNL1        0.0158
     26 C         139.7914  143.1464  165.7234 C.ar    1  UNL1        0.0159
     27 N         141.0290  141.2095  168.9587 N.pl3   1  UNL1       -0.3047
     28 C         142.0398  140.1109  169.1048 C.3     1  UNL1        0.1079
     29 C         142.6628  139.8379  170.4418 C.3     1  UNL1        0.0903
     30 N         142.2750  140.6636  171.6325 N.3     1  UNL1       -0.2946
     31 C         141.2642  141.7622  171.4863 C.3     1  UNL1        0.0903
     32 C         140.6412  142.0351  170.1494 C.3     1  UNL1        0.1079
     33 H         143.1303  141.0951  171.9828 H       1  UNL1        0.1233
     34 C         145.2261  141.3233  157.1519 C.2     1  UNL1        0.2271
     35 O         145.1416  142.4872  158.0942 O.2     1  UNL1       -0.2747
     36 N         144.4769  140.0591  157.4523 N.am    1  UNL1       -0.2641
     37 H         144.5324  139.2951  156.8338 H       1  UNL1        0.1567
     38 C         148.5614  141.7245  152.1804 C.3     1  UNL1        0.0896
     39 N         147.7276  141.6242  153.4233 N.3     1  UNL1       -0.2715
     40 C         148.2509  142.1602  154.7228 C.3     1  UNL1        0.0726
     41 C         147.4171  142.0599  155.9657 C.3     1  UNL1        0.0264
     42 C         146.0599  141.4236  155.9090 C.3     1  UNL1        0.0796
     43 C         145.5366  140.8876  154.6095 C.3     1  UNL1        0.0264
     44 C         146.3704  140.9879  153.3666 C.3     1  UNL1        0.0726
@<TRIPOS>BOND
     1    38    39    1
     2    39    40    1
     3    40    41    1
     4    41    42    1
     5    42    34    1
     6    34    35    2
     7    34    36   am
     8    36     1    1
     9     1     2   ar
    10     2     3   ar
    11     3     6    1
    12     6     7   ar
    13     7     8   ar
    14     8     9   ar
    15     9    10    1
    16     9    11   ar
    17    11    12   ar
    18     3     4   ar
    19     4    13    1
    20    13    14   ar
    21    14    15   ar
    22    15    16   ar
    23    16    17   ar
    24    17    19    1
    25    19    21    1
    26    21    22   ar
    27    22    23   ar
    28    23    24   ar
    29    24    27    1
    30    27    28    1
    31    28    29    1
    32    29    30    1
    33    30    31    1
    34    31    32    1
    35    24    25   ar
    36    25    26   ar
    37    17    18   ar
    38     4     5   ar
    39    42    43    1
    40    43    44    1
    41    44    39    1
    42     5     1   ar
    43    12     6   ar
    44    18    13   ar
    45    26    21   ar
    46    32    27    1
    47    36    37    1
    48    19    20    1
    49    30    33    1
@<TRIPOS>MOLECULE
*****
 44 49 0 0 0
SMALL
GASTEIGER

@<TRIPOS>ATOM
      1 C         139.4584  143.4695  158.8847 C.ar    1  UNL1        0.1655
      2 N         139.6077  144.1140  160.2309 N.ar    1  UNL1       -0.2239
      3 C         139.4546  143.0479  161.2749 C.ar    1  UNL1        0.0907
      4 C         139.2107  141.7444  160.5739 C.ar    1  UNL1        0.0675
      5 S         139.2131  142.0048  159.0966 S.2     1  UNL1       -0.0499
      6 C         139.5318  143.2497  162.7591 C.ar    1  UNL1        0.0184
      7 C         138.3380  143.7611  163.5096 C.ar    1  UNL1        0.0038
      8 C         138.4153  143.9630  164.9940 C.ar    1  UNL1        0.0297
      9 C         139.6864  143.6534  165.7278 C.ar    1  UNL1        0.1401
     10 F         139.7636  143.8552  167.2123 F       1  UNL1       -0.2042
     11 C         140.8802  143.1420  164.9773 C.ar    1  UNL1        0.0297
     12 C         140.8029  142.9401  163.4930 C.ar    1  UNL1        0.0038
     13 C         139.0013  140.4139  161.2341 C.ar    1  UNL1        0.0932
     14 C         137.7840  139.5993  160.9105 C.ar    1  UNL1        0.0405
     15 C         137.5745  138.2688  161.5708 C.ar    1  UNL1        0.1034
     16 N         138.5823  137.7529  162.5546 N.ar    1  UNL1       -0.2120
     17 C         139.7996  138.5675  162.8783 C.ar    1  UNL1        0.2207
     18 N         140.0091  139.8980  162.2180 N.ar    1  UNL1       -0.2130
     19 N         140.8075  138.0515  163.8622 N.pl3   1  UNL1       -0.2825
     20 H         141.3214  137.2367  163.6590 H       1  UNL1        0.1551
     21 C         141.0324  138.7769  165.1557 C.ar    1  UNL1        0.0505
     22 C         139.8838  139.4478  165.8488 C.ar    1  UNL1        0.0159
     23 C         140.1086  140.1733  167.1423 C.ar    1  UNL1        0.0158
     24 C         141.4821  140.2277  167.7427 C.ar    1  UNL1        0.0480
     25 C         142.6308  139.5567  167.0496 C.ar    1  UNL1        0.0158
     26 C         142.4059  138.8313  165.7561 C.ar    1  UNL1        0.0159
     27 N         141.7070  140.9531  169.0363 N.pl3   1  UNL1       -0.3047
     28 C         140.9384  140.5568  170.2619 C.3     1  UNL1        0.1079
     29 C         141.1633  141.2821  171.5555 C.3     1  UNL1        0.0903
     30 N         142.1568  142.4039  171.6234 N.3     1  UNL1       -0.2946
     31 C         142.9254  142.8003  170.3978 C.3     1  UNL1        0.0903
     32 C         142.7005  142.0749  169.1042 C.3     1  UNL1        0.1079
     33 H         142.8442  142.1459  172.3314 H       1  UNL1        0.1233
     34 C         140.5300  145.2752  157.3547 C.2     1  UNL1        0.2271
     35 O         141.4382  145.6859  158.4756 O.2     1  UNL1       -0.2747
     36 N         139.5401  144.1670  157.5592 N.am    1  UNL1       -0.2641
     37 H         138.9440  143.8974  156.8235 H       1  UNL1        0.1567
     38 C         140.8569  148.0651  152.0529 C.3     1  UNL1        0.0896
     39 N         140.7752  147.3677  153.3783 N.3     1  UNL1       -0.2715
     40 C         141.5496  146.1041  153.6099 C.3     1  UNL1        0.0726
     41 C         141.4679  145.4066  154.9354 C.3     1  UNL1        0.0264
     42 C         140.6117  145.9727  156.0292 C.3     1  UNL1        0.0796
     43 C         139.8373  147.2362  155.7976 C.3     1  UNL1        0.0264
     44 C         139.9190  147.9337  154.4722 C.3     1  UNL1        0.0726
@<TRIPOS>BOND
     1    38    39    1
     2    39    40    1
     3    40    41    1
     4    41    42    1
     5    42    34    1
     6    34    35    2
     7    34    36   am
     8    36     1    1
     9     1     2   ar
    10     2     3   ar
    11     3     6    1
    12     6     7   ar
    13     7     8   ar
    14     8     9   ar
    15     9    10    1
    16     9    11   ar
    17    11    12   ar
    18     3     4   ar
    19     4    13    1
    20    13    14   ar
    21    14    15   ar
    22    15    16   ar
    23    16    17   ar
    24    17    19    1
    25    19    21    1
    26    21    22   ar
    27    22    23   ar
    28    23    24   ar
    29    24    27    1
    30    27    28    1
    31    28    29    1
    32    29    30    1
    33    30    31    1
    34    31    32    1
    35    24    25   ar
    36    25    26   ar
    37    17    18   ar
    38     4     5   ar
    39    42    43    1
    40    43    44    1
    41    44    39    1
    42     5     1   ar
    43    12     6   ar
    44    18    13   ar
    45    26    21   ar
    46    32    27    1
    47    36    37    1
    48    19    20    1
    49    30    33    1
@<TRIPOS>MOLECULE
*****
 44 49 0 0 0
SMALL
GASTEIGER

@<TRIPOS>ATOM
      1 C         142.3224  137.7984  158.1840 C.ar    1  UNL1        0.1655
      2 N         143.4365  138.2313  159.0902 N.ar    1  UNL1       -0.2239
      3 C         142.8978  139.2779  160.0200 C.ar    1  UNL1        0.0907
      4 C         141.4506  139.4918  159.6884 C.ar    1  UNL1        0.0675
      5 S         141.0949  138.5774  158.5538 S.2     1  UNL1       -0.0499
      6 C         143.6705  139.9862  161.0928 C.ar    1  UNL1        0.0184
      7 C         144.1386  141.3945  160.8745 C.ar    1  UNL1        0.0038
      8 C         144.9113  142.1028  161.9475 C.ar    1  UNL1        0.0297
      9 C         145.2159  141.4028  163.2387 C.ar    1  UNL1        0.1401
     10 F         145.9886  142.1112  164.3117 F       1  UNL1       -0.2042
     11 C         144.7478  139.9946  163.4570 C.ar    1  UNL1        0.0297
     12 C         143.9751  139.2863  162.3841 C.ar    1  UNL1        0.0038
     13 C         140.5221  140.4515  160.3716 C.ar    1  UNL1        0.0932
     14 C         140.3468  141.8395  159.8303 C.ar    1  UNL1        0.0405
     15 C         139.4183  142.7992  160.5135 C.ar    1  UNL1        0.1034
     16 N         138.6650  142.3710  161.7379 N.ar    1  UNL1       -0.2120
     17 C         138.8402  140.9830  162.2791 C.ar    1  UNL1        0.2207
     18 N         139.7688  140.0233  161.5960 N.ar    1  UNL1       -0.2130
     19 N         138.0869  140.5549  163.5036 N.pl3   1  UNL1       -0.2825
     20 H         137.1540  140.2499  163.4260 H       1  UNL1        0.1551
     21 C         138.7549  140.5914  164.8461 C.ar    1  UNL1        0.0505
     22 C         139.7515  141.6678  165.1589 C.ar    1  UNL1        0.0159
     23 C         140.4195  141.7043  166.5015 C.ar    1  UNL1        0.0158
     24 C         140.0908  140.6643  167.5312 C.ar    1  UNL1        0.0480
     25 C         139.0942  139.5878  167.2184 C.ar    1  UNL1        0.0158
     26 C         138.4262  139.5514  165.8759 C.ar    1  UNL1        0.0159
     27 N         140.7588  140.7008  168.8738 N.pl3   1  UNL1       -0.3047
     28 C         140.1824  141.5396  169.9758 C.3     1  UNL1        0.1079
     29 C         140.8503  141.5761  171.3184 C.3     1  UNL1        0.0903
     30 N         142.0946  140.7738  171.5590 N.3     1  UNL1       -0.2946
     31 C         142.6711  139.9351  170.4571 C.3     1  UNL1        0.0903
     32 C         142.0032  139.8986  169.1145 C.3     1  UNL1        0.1079
     33 H         141.8928  140.1428  172.3345 H       1  UNL1        0.1233
     34 C         142.9553  135.4012  157.4075 C.2     1  UNL1        0.2271
     35 O         143.3957  135.0659  158.8017 O.2     1  UNL1       -0.2747
     36 N         142.4186  136.7674  157.0987 N.am    1  UNL1       -0.2641
     37 H         142.1296  136.9875  156.1837 H       1  UNL1        0.1567
     38 C         143.3404  131.2775  153.0663 C.3     1  UNL1        0.0896
     39 N         143.2441  132.3084  154.1516 N.3     1  UNL1       -0.2715
     40 C         142.3933  133.5279  153.9543 C.3     1  UNL1        0.0726
     41 C         142.2971  134.5588  155.0396 C.3     1  UNL1        0.0264
     42 C         143.0516  134.3703  156.3222 C.3     1  UNL1        0.0796
     43 C         143.9023  133.1508  156.5195 C.3     1  UNL1        0.0264
     44 C         143.9986  132.1198  155.4342 C.3     1  UNL1        0.0726
@<TRIPOS>BOND
     1    38    39    1
     2    39    40    1
     3    40    41    1
     4    41    42    1
     5    42    34    1
     6    34    35    2
     7    34    36   am
     8    36     1    1
     9     1     2   ar
    10     2     3   ar
    11     3     6    1
    12     6     7   ar
    13     7     8   ar
    14     8     9   ar
    15     9    10    1
    16     9    11   ar
    17    11    12   ar
    18     3     4   ar
    19     4    13    1
    20    13    14   ar
    21    14    15   ar
    22    15    16   ar
    23    16    17   ar
    24    17    19    1
    25    19    21    1
    26    21    22   ar
    27    22    23   ar
    28    23    24   ar
    29    24    27    1
    30    27    28    1
    31    28    29    1
    32    29    30    1
    33    30    31    1
    34    31    32    1
    35    24    25   ar
    36    25    26   ar
    37    17    18   ar
    38     4     5   ar
    39    42    43    1
    40    43    44    1
    41    44    39    1
    42     5     1   ar
    43    12     6   ar
    44    18    13   ar
    45    26    21   ar
    46    32    27    1
    47    36    37    1
    48    19    20    1
    49    30    33    1
@<TRIPOS>MOLECULE
*****
 44 49 0 0 0
SMALL
GASTEIGER

@<TRIPOS>ATOM
      1 C         143.1782  141.8872  159.3928 C.ar    1  UNL1        0.1655
      2 N         142.8187  142.9305  160.4088 N.ar    1  UNL1       -0.2239
      3 C         141.5868  142.4699  161.1302 C.ar    1  UNL1        0.0907
      4 C         141.1850  141.1420  160.5600 C.ar    1  UNL1        0.0675
      5 S         142.1685  140.7818  159.4862 S.2     1  UNL1       -0.0499
      6 C         140.8807  143.2077  162.2288 C.ar    1  UNL1        0.0184
      7 C         139.9359  144.3241  161.8958 C.ar    1  UNL1        0.0038
      8 C         139.2298  145.0619  162.9945 C.ar    1  UNL1        0.0297
      9 C         139.4686  144.6832  164.4262 C.ar    1  UNL1        0.1401
     10 F         138.7625  145.4210  165.5249 F       1  UNL1       -0.2042
     11 C         140.4135  143.5668  164.7592 C.ar    1  UNL1        0.0297
     12 C         141.1195  142.8291  163.6605 C.ar    1  UNL1        0.0038
     13 C         140.0066  140.3187  160.9884 C.ar    1  UNL1        0.0932
     14 C         138.7710  140.2787  160.1389 C.ar    1  UNL1        0.0405
     15 C         137.5926  139.4554  160.5672 C.ar    1  UNL1        0.1034
     16 N         137.6498  138.6721  161.8452 N.ar    1  UNL1       -0.2120
     17 C         138.8854  138.7121  162.6947 C.ar    1  UNL1        0.2207
     18 N         140.0638  139.5354  162.2664 N.ar    1  UNL1       -0.2130
     19 N         138.9425  137.9288  163.9728 N.pl3   1  UNL1       -0.2825
     20 H         138.7222  136.9692  163.9723 H       1  UNL1        0.1551
     21 C         139.3353  138.6074  165.2515 C.ar    1  UNL1        0.0505
     22 C         140.7622  139.0098  165.4794 C.ar    1  UNL1        0.0159
     23 C         141.1550  139.6884  166.7581 C.ar    1  UNL1        0.0158
     24 C         140.1209  139.9647  167.8089 C.ar    1  UNL1        0.0480
     25 C         138.6939  139.5623  167.5810 C.ar    1  UNL1        0.0158
     26 C         138.3012  138.8837  166.3023 C.ar    1  UNL1        0.0159
     27 N         140.5137  140.6434  169.0877 N.pl3   1  UNL1       -0.3047
     28 C         139.8044  141.8913  169.5230 C.3     1  UNL1        0.1079
     29 C         140.1971  142.5700  170.8017 C.3     1  UNL1        0.0903
     30 N         141.2991  142.0007  171.6451 N.3     1  UNL1       -0.2946
     31 C         142.0084  140.7528  171.2098 C.3     1  UNL1        0.0903
     32 C         141.6157  140.0741  169.9311 C.3     1  UNL1        0.1079
     33 H         140.8975  141.8065  172.5624 H       1  UNL1        0.1233
     34 C         144.1443  142.4089  157.0381 C.2     1  UNL1        0.2271
     35 O         142.7810  142.8250  156.5710 O.2     1  UNL1       -0.2747
     36 N         144.3429  141.9400  158.4490 N.am    1  UNL1       -0.2641
     37 H         145.2377  141.6669  158.7556 H       1  UNL1        0.1567
     38 C         148.8031  142.6201  153.2630 C.3     1  UNL1        0.0896
     39 N         147.6384  142.5673  154.2068 N.3     1  UNL1       -0.2715
     40 C         147.8517  142.1815  155.6405 C.3     1  UNL1        0.0726
     41 C         146.6870  142.1287  156.5843 C.3     1  UNL1        0.0264
     42 C         145.3090  142.4617  156.0943 C.3     1  UNL1        0.0796
     43 C         145.0956  142.8475  154.6606 C.3     1  UNL1        0.0264
     44 C         146.2603  142.9003  153.7168 C.3     1  UNL1        0.0726
@<TRIPOS>BOND
     1    38    39    1
     2    39    40    1
     3    40    41    1
     4    41    42    1
     5    42    34    1
     6    34    35    2
     7    34    36   am
     8    36     1    1
     9     1     2   ar
    10     2     3   ar
    11     3     6    1
    12     6     7   ar
    13     7     8   ar
    14     8     9   ar
    15     9    10    1
    16     9    11   ar
    17    11    12   ar
    18     3     4   ar
    19     4    13    1
    20    13    14   ar
    21    14    15   ar
    22    15    16   ar
    23    16    17   ar
    24    17    19    1
    25    19    21    1
    26    21    22   ar
    27    22    23   ar
    28    23    24   ar
    29    24    27    1
    30    27    28    1
    31    28    29    1
    32    29    30    1
    33    30    31    1
    34    31    32    1
    35    24    25   ar
    36    25    26   ar
    37    17    18   ar
    38     4     5   ar
    39    42    43    1
    40    43    44    1
    41    44    39    1
    42     5     1   ar
    43    12     6   ar
    44    18    13   ar
    45    26    21   ar
    46    32    27    1
    47    36    37    1
    48    19    20    1
    49    30    33    1
@<TRIPOS>MOLECULE
*****
 44 49 0 0 0
SMALL
GASTEIGER

@<TRIPOS>ATOM
      1 C         144.6688  141.3780  157.2026 C.ar    1  UNL1        0.1655
      2 N         144.4796  140.1903  158.0990 N.ar    1  UNL1       -0.2239
      3 C         143.3280  140.4801  159.0155 C.ar    1  UNL1        0.0907
      4 C         142.8055  141.8468  158.6854 C.ar    1  UNL1        0.0675
      5 S         143.6341  142.4018  157.5649 S.2     1  UNL1       -0.0499
      6 C         142.7929  139.5640  160.0758 C.ar    1  UNL1        0.0184
      7 C         143.6662  139.1560  161.2250 C.ar    1  UNL1        0.0038
      8 C         143.1310  138.2398  162.2853 C.ar    1  UNL1        0.0297
      9 C         141.7224  137.7317  162.1964 C.ar    1  UNL1        0.1401
     10 F         141.1872  136.8156  163.2567 F       1  UNL1       -0.2042
     11 C         140.8491  138.1398  161.0471 C.ar    1  UNL1        0.0297
     12 C         141.3843  139.0559  159.9868 C.ar    1  UNL1        0.0038
     13 C         141.6561  142.5374  159.3577 C.ar    1  UNL1        0.0932
     14 C         140.2718  142.4116  158.7937 C.ar    1  UNL1        0.0405
     15 C         139.1224  143.1022  159.4660 C.ar    1  UNL1        0.1034
     16 N         139.3573  143.9185  160.7023 N.ar    1  UNL1       -0.2120
     17 C         140.7415  144.0443  161.2662 C.ar    1  UNL1        0.2207
     18 N         141.8909  143.3537  160.5940 N.ar    1  UNL1       -0.2130
     19 N         140.9764  144.8607  162.5026 N.pl3   1  UNL1       -0.2825
     20 H         141.2467  145.8042  162.4255 H       1  UNL1        0.1551
     21 C         140.7994  144.2395  163.8564 C.ar    1  UNL1        0.0505
     22 C         139.5818  144.5557  164.6733 C.ar    1  UNL1        0.0159
     23 C         139.4048  143.9345  166.0271 C.ar    1  UNL1        0.0158
     24 C         140.4454  142.9971  166.5639 C.ar    1  UNL1        0.0480
     25 C         141.6631  142.6808  165.7470 C.ar    1  UNL1        0.0158
     26 C         141.8400  143.3020  164.3932 C.ar    1  UNL1        0.0159
     27 N         140.2685  142.3758  167.9178 N.pl3   1  UNL1       -0.3047
     28 C         140.4078  143.2160  169.1525 C.3     1  UNL1        0.1079
     29 C         140.2309  142.5949  170.5063 C.3     1  UNL1        0.0903
     30 N         139.9146  141.1334  170.6254 N.3     1  UNL1       -0.2946
     31 C         139.7753  140.2932  169.3906 C.3     1  UNL1        0.0903
     32 C         139.9522  140.9144  168.0368 C.3     1  UNL1        0.1079
     33 H         139.0311  141.0636  171.1303 H       1  UNL1        0.1233
     34 C         146.9533  142.3145  156.3937 C.2     1  UNL1        0.2271
     35 O         147.1555  142.9722  157.7266 O.2     1  UNL1       -0.2747
     36 N         145.7099  141.5174  156.1317 N.am    1  UNL1       -0.2641
     37 H         145.5772  141.0858  155.2569 H       1  UNL1        0.1567
     38 C         151.1176  142.8722  152.1104 C.3     1  UNL1        0.0896
     39 N         150.0766  142.7328  153.1812 N.3     1  UNL1       -0.2715
     40 C         150.3185  141.8225  154.3485 C.3     1  UNL1        0.0726
     41 C         149.2774  141.6830  155.4194 C.3     1  UNL1        0.0264
     42 C         147.9944  142.4540  155.3229 C.3     1  UNL1        0.0796
     43 C         147.7524  143.3643  154.1556 C.3     1  UNL1        0.0264
     44 C         148.7935  143.5037  153.0847 C.3     1  UNL1        0.0726
@<TRIPOS>BOND
     1    38    39    1
     2    39    40    1
     3    40    41    1
     4    41    42    1
     5    42    34    1
     6    34    35    2
     7    34    36   am
     8    36     1    1
     9     1     2   ar
    10     2     3   ar
    11     3     6    1
    12     6     7   ar
    13     7     8   ar
    14     8     9   ar
    15     9    10    1
    16     9    11   ar
    17    11    12   ar
    18     3     4   ar
    19     4    13    1
    20    13    14   ar
    21    14    15   ar
    22    15    16   ar
    23    16    17   ar
    24    17    19    1
    25    19    21    1
    26    21    22   ar
    27    22    23   ar
    28    23    24   ar
    29    24    27    1
    30    27    28    1
    31    28    29    1
    32    29    30    1
    33    30    31    1
    34    31    32    1
    35    24    25   ar
    36    25    26   ar
    37    17    18   ar
    38     4     5   ar
    39    42    43    1
    40    43    44    1
    41    44    39    1
    42     5     1   ar
    43    12     6   ar
    44    18    13   ar
    45    26    21   ar
    46    32    27    1
    47    36    37    1
    48    19    20    1
    49    30    33    1
@<TRIPOS>MOLECULE
*****
 44 49 0 0 0
SMALL
GASTEIGER

@<TRIPOS>ATOM
      1 C         140.0922  138.7153  158.4975 C.ar    1  UNL1        0.1655
      2 N         139.5594  138.2990  159.8364 N.ar    1  UNL1       -0.2239
      3 C         139.6626  139.4746  160.7624 C.ar    1  UNL1        0.0907
      4 C         140.2592  140.6175  159.9957 C.ar    1  UNL1        0.0675
      5 S         140.5248  140.1483  158.5959 S.2     1  UNL1       -0.0499
      6 C         139.2429  139.5024  162.2021 C.ar    1  UNL1        0.0184
      7 C         138.3080  140.5690  162.6904 C.ar    1  UNL1        0.0038
      8 C         137.8883  140.5967  164.1302 C.ar    1  UNL1        0.0297
      9 C         138.4035  139.5579  165.0818 C.ar    1  UNL1        0.1401
     10 F         137.9838  139.5857  166.5217 F       1  UNL1       -0.2042
     11 C         139.3383  138.4913  164.5935 C.ar    1  UNL1        0.0297
     12 C         139.7580  138.4635  163.1537 C.ar    1  UNL1        0.0038
     13 C         140.5408  141.9889  160.5343 C.ar    1  UNL1        0.0932
     14 C         139.8949  143.1884  159.9066 C.ar    1  UNL1        0.0405
     15 C         140.1765  144.5597  160.4451 C.ar    1  UNL1        0.1034
     16 N         141.1041  144.7316  161.6113 N.ar    1  UNL1       -0.2120
     17 C         141.7500  143.5321  162.2390 C.ar    1  UNL1        0.2207
     18 N         141.4684  142.1607  161.7005 N.ar    1  UNL1       -0.2130
     19 N         142.6776  143.7040  163.4052 N.pl3   1  UNL1       -0.2825
     20 H         143.5303  144.1825  163.2897 H       1  UNL1        0.1551
     21 C         142.3062  143.1469  164.7475 C.ar    1  UNL1        0.0505
     22 C         140.8621  143.0113  165.1297 C.ar    1  UNL1        0.0159
     23 C         140.4907  142.4542  166.4719 C.ar    1  UNL1        0.0158
     24 C         141.5634  142.0326  167.4319 C.ar    1  UNL1        0.0480
     25 C         143.0075  142.1682  167.0497 C.ar    1  UNL1        0.0158
     26 C         143.3789  142.7253  165.7075 C.ar    1  UNL1        0.0159
     27 N         141.1920  141.4754  168.7742 N.pl3   1  UNL1       -0.3047
     28 C         139.8695  140.7933  168.9633 C.3     1  UNL1        0.1079
     29 C         139.4980  140.2362  170.3055 C.3     1  UNL1        0.0903
     30 N         140.4491  140.3611  171.4587 N.3     1  UNL1       -0.2946
     31 C         141.7716  141.0433  171.2697 C.3     1  UNL1        0.0903
     32 C         142.1430  141.6004  169.9274 C.3     1  UNL1        0.1079
     33 H         140.6495  139.4137  171.7790 H       1  UNL1        0.1233
     34 C         141.4566  137.1387  156.9475 C.2     1  UNL1        0.2271
     35 O         142.6503  137.2916  157.8428 O.2     1  UNL1       -0.2747
     36 N         140.1776  137.8506  157.2748 N.am    1  UNL1       -0.2641
     37 H         139.3941  137.7503  156.6872 H       1  UNL1        0.1567
     38 C         141.7981  133.6799  152.0567 C.3     1  UNL1        0.0896
     39 N         141.7127  134.5446  153.2794 N.3     1  UNL1       -0.2715
     40 C         142.6048  134.2726  154.4541 C.3     1  UNL1        0.0726
     41 C         142.5195  135.1373  155.6768 C.3     1  UNL1        0.0264
     42 C         141.5420  136.2740  155.7248 C.3     1  UNL1        0.0796
     43 C         140.6499  136.5460  154.5500 C.3     1  UNL1        0.0264
     44 C         140.7352  135.6813  153.3273 C.3     1  UNL1        0.0726
@<TRIPOS>BOND
     1    38    39    1
     2    39    40    1
     3    40    41    1
     4    41    42    1
     5    42    34    1
     6    34    35    2
     7    34    36   am
     8    36     1    1
     9     1     2   ar
    10     2     3   ar
    11     3     6    1
    12     6     7   ar
    13     7     8   ar
    14     8     9   ar
    15     9    10    1
    16     9    11   ar
    17    11    12   ar
    18     3     4   ar
    19     4    13    1
    20    13    14   ar
    21    14    15   ar
    22    15    16   ar
    23    16    17   ar
    24    17    19    1
    25    19    21    1
    26    21    22   ar
    27    22    23   ar
    28    23    24   ar
    29    24    27    1
    30    27    28    1
    31    28    29    1
    32    29    30    1
    33    30    31    1
    34    31    32    1
    35    24    25   ar
    36    25    26   ar
    37    17    18   ar
    38     4     5   ar
    39    42    43    1
    40    43    44    1
    41    44    39    1
    42     5     1   ar
    43    12     6   ar
    44    18    13   ar
    45    26    21   ar
    46    32    27    1
    47    36    37    1
    48    19    20    1
    49    30    33    1
@<TRIPOS>MOLECULE
*****
 44 49 0 0 0
SMALL
GASTEIGER

@<TRIPOS>ATOM
      1 C         142.0502  143.5512  158.7326 C.ar    1  UNL1        0.1655
      2 N         142.5195  144.0333  160.0732 N.ar    1  UNL1       -0.2239
      3 C         142.5517  142.8571  161.0036 C.ar    1  UNL1        0.0907
      4 C         142.1023  141.6481  160.2380 C.ar    1  UNL1        0.0675
      5 S         141.7923  142.0769  158.8344 S.2     1  UNL1       -0.0499
      6 C         142.9613  142.8850  162.4463 C.ar    1  UNL1        0.0184
      7 C         141.9349  143.1272  163.5129 C.ar    1  UNL1        0.0038
      8 C         142.3446  143.1552  164.9555 C.ar    1  UNL1        0.0297
      9 C         143.7808  142.9408  165.3316 C.ar    1  UNL1        0.1401
     10 F         144.1905  142.9688  166.7744 F       1  UNL1       -0.2042
     11 C         144.8073  142.6986  164.2650 C.ar    1  UNL1        0.0297
     12 C         144.3976  142.6707  162.8224 C.ar    1  UNL1        0.0038
     13 C         141.9836  140.2547  160.7806 C.ar    1  UNL1        0.0932
     14 C         142.7302  139.1294  160.1276 C.ar    1  UNL1        0.0405
     15 C         142.6115  137.7360  160.6702 C.ar    1  UNL1        0.1034
     16 N         141.7463  137.4680  161.8658 N.ar    1  UNL1       -0.2120
     17 C         140.9997  138.5932  162.5188 C.ar    1  UNL1        0.2207
     18 N         141.1184  139.9866  161.9762 N.ar    1  UNL1       -0.2130
     19 N         140.1345  138.3251  163.7145 N.pl3   1  UNL1       -0.2825
     20 H         139.3653  137.7153  163.6387 H       1  UNL1        0.1551
     21 C         140.4411  138.9862  165.0256 C.ar    1  UNL1        0.0505
     22 C         141.8657  139.1744  165.4555 C.ar    1  UNL1        0.0159
     23 C         142.1724  139.8355  166.7666 C.ar    1  UNL1        0.0158
     24 C         141.0544  140.3083  167.6477 C.ar    1  UNL1        0.0480
     25 C         139.6297  140.1200  167.2178 C.ar    1  UNL1        0.0158
     26 C         139.3231  139.4589  165.9067 C.ar    1  UNL1        0.0159
     27 N         141.3610  140.9694  168.9589 N.pl3   1  UNL1       -0.3047
     28 C         140.9378  140.3202  170.2432 C.3     1  UNL1        0.1079
     29 C         141.2443  140.9812  171.5543 C.3     1  UNL1        0.0903
     30 N         141.9741  142.2914  171.5811 N.3     1  UNL1       -0.2946
     31 C         142.3973  142.9406  170.2968 C.3     1  UNL1        0.0903
     32 C         142.0907  142.2796  168.9857 C.3     1  UNL1        0.1079
     33 H         142.8211  142.1455  172.1304 H       1  UNL1        0.1233
     34 C         140.7420  145.3805  157.4319 C.2     1  UNL1        0.2271
     35 O         139.7934  145.5221  158.5852 O.2     1  UNL1       -0.2747
     36 N         141.8704  144.3950  157.5056 N.am    1  UNL1       -0.2641
     37 H         142.4930  144.3021  156.7486 H       1  UNL1        0.1567
     38 C         140.0225  148.7560  152.5238 C.3     1  UNL1        0.0896
     39 N         140.2024  147.9121  153.7509 N.3     1  UNL1       -0.2715
     40 C         141.1604  146.7580  153.7336 C.3     1  UNL1        0.0726
     41 C         141.3402  145.9142  154.9606 C.3     1  UNL1        0.0264
     42 C         140.5621  146.2244  156.2049 C.3     1  UNL1        0.0796
     43 C         139.6041  147.3784  156.2221 C.3     1  UNL1        0.0264
     44 C         139.4243  148.2223  154.9951 C.3     1  UNL1        0.0726
@<TRIPOS>BOND
     1    38    39    1
     2    39    40    1
     3    40    41    1
     4    41    42    1
     5    42    34    1
     6    34    35    2
     7    34    36   am
     8    36     1    1
     9     1     2   ar
    10     2     3   ar
    11     3     6    1
    12     6     7   ar
    13     7     8   ar
    14     8     9   ar
    15     9    10    1
    16     9    11   ar
    17    11    12   ar
    18     3     4   ar
    19     4    13    1
    20    13    14   ar
    21    14    15   ar
    22    15    16   ar
    23    16    17   ar
    24    17    19    1
    25    19    21    1
    26    21    22   ar
    27    22    23   ar
    28    23    24   ar
    29    24    27    1
    30    27    28    1
    31    28    29    1
    32    29    30    1
    33    30    31    1
    34    31    32    1
    35    24    25   ar
    36    25    26   ar
    37    17    18   ar
    38     4     5   ar
    39    42    43    1
    40    43    44    1
    41    44    39    1
    42     5     1   ar
    43    12     6   ar
    44    18    13   ar
    45    26    21   ar
    46    32    27    1
    47    36    37    1
    48    19    20    1
    49    30    33    1
