@<TRIPOS>MOLECULE
*****
 47 52 0 0 0
SMALL
GASTEIGER

@<TRIPOS>ATOM
      1 C         138.1118  144.2406  164.4682 C.3     1  UNL1        0.0320
      2 C         137.9935  142.8822  163.8433 C.3     1  UNL1        0.0932
      3 C         137.8118  142.7521  162.3600 C.3     1  UNL1        0.0286
      4 C         137.6935  141.3936  161.7352 C.3     1  UNL1        0.0193
      5 C         137.7569  140.1651  162.5936 C.3     1  UNL1        0.0700
      6 C         137.9386  140.2952  164.0769 C.3     1  UNL1        0.0193
      7 C         138.0569  141.6537  164.7017 C.3     1  UNL1        0.0286
      8 C         137.8265  140.8881  162.9814 C.3     1  UNL1        0.1562
      9 O         137.9335  142.1165  163.5465 O.3     1  UNL1       -0.3572
     10 N         137.6386  138.8066  161.9687 N.3     1  UNL1       -0.2926
     11 H         136.9698  138.8918  161.2033 H       1  UNL1        0.1236
     12 C         138.8545  138.1305  161.4081 C.3     1  UNL1        0.1152
     13 C         140.2142  138.4670  161.9446 C.ar    1  UNL1        0.0765
     14 C         141.2021  139.1946  161.0815 C.ar    1  UNL1        0.0193
     15 C         142.5618  139.5311  161.6181 C.ar    1  UNL1        0.0411
     16 C         142.9338  139.1400  163.0176 C.ar    1  UNL1        0.1708
     17 C         141.9460  138.4124  163.8806 C.ar    1  UNL1        0.1682
     18 N         140.5862  138.0759  163.3441 N.ar    1  UNL1       -0.2304
     19 N         142.3179  138.0213  165.2801 N.am    1  UNL1       -0.2639
     20 C         143.6777  138.3578  165.8166 C.2     1  UNL1        0.2718
     21 O         144.0496  137.9667  167.2162 O.2     1  UNL1       -0.2707
     22 C         144.6655  139.0854  164.9536 C.3     1  UNL1        0.2898
     23 O         144.2936  139.4765  163.5541 O.3     1  UNL1       -0.4628
     24 H         141.6696  137.5437  165.8466 H       1  UNL1        0.1565
     25 C         139.4462  144.9228  164.5328 C.3     1  UNL1        0.0327
     26 C         143.4105  142.8330  164.9414 C.ar    1  UNL1        0.2249
     27 C         144.3458  142.7635  163.7709 C.ar    1  UNL1        0.0593
     28 C         143.9598  143.3906  162.4641 C.ar    1  UNL1        0.0254
     29 C         142.6384  144.0873  162.3279 C.ar    1  UNL1        0.0990
     30 N         142.2523  144.7144  161.0211 N.ar    1  UNL1       -0.2400
     31 C         140.9309  145.4110  160.8849 C.ar    1  UNL1        0.1281
     32 C         139.9955  145.4805  162.0555 C.ar    1  UNL1        0.1566
     33 F         138.6741  146.1771  161.9193 F       1  UNL1       -0.2028
     34 C         140.3816  144.8534  163.3623 C.ar    1  UNL1        0.0261
     35 C         141.7030  144.1567  163.4984 C.ar    1  UNL1        0.1002
     36 N         142.0891  143.5296  164.8052 N.ar    1  UNL1       -0.2104
     37 O         143.7965  142.2058  166.2482 O.3     1  UNL1       -0.4600
     38 C         142.7391  141.8502  167.2508 C.3     1  UNL1        0.2134
     39 C         142.7903  142.4311  168.6329 C.3     1  UNL1        0.1253
     40 C         141.5177  142.7585  169.3564 C.3     1  UNL1        0.3540
     41 F         142.1710  142.4131  170.6617 F       1  UNL1       -0.1923
     42 F         140.8644  143.1040  168.0511 F       1  UNL1       -0.1923
     43 C         140.2452  143.0859  170.0799 C.2     1  UNL1        0.3789
     44 O         139.9365  144.5067  170.4491 O.2     1  UNL1       -0.2440
     45 O         139.2813  141.9926  170.4344 O.3     1  UNL1       -0.4448
     46 C         139.3250  140.0796  168.6770 C.3     1  UNL1        0.0513
     47 C         139.5918  140.5714  170.0688 C.3     1  UNL1        0.2087
@<TRIPOS>BOND
     1    46    47    1
     2    47    45    1
     3    45    43    1
     4    43    44    2
     5    43    40    1
     6    40    41    1
     7    40    42    1
     8    40    39    1
     9    39    38    1
    10    38    37    1
    11    37    26    1
    12    26    27   ar
    13    27    28   ar
    14    28    29   ar
    15    29    30   ar
    16    30    31   ar
    17    31    32   ar
    18    32    33    1
    19    32    34   ar
    20    34    25    1
    21    25     1    1
    22     1     2    1
    23     2     3    1
    24     3     4    1
    25     4     5    1
    26     5    10    1
    27    10    12    1
    28    12    13    1
    29    13    14   ar
    30    14    15   ar
    31    15    16   ar
    32    16    17   ar
    33    17    18   ar
    34    17    19    1
    35    19    20   am
    36    20    21    2
    37    20    22    1
    38    22    23    1
    39     5     6    1
    40     6     7    1
    41     5     8    1
    42     8     9    1
    43    34    35   ar
    44    35    36   ar
    45    36    26   ar
    46    35    29   ar
    47     7     2    1
    48     9     2    1
    49    18    13   ar
    50    23    16    1
    51    10    11    1
    52    19    24    1
@<TRIPOS>MOLECULE
*****
 47 52 0 0 0
SMALL
GASTEIGER

@<TRIPOS>ATOM
      1 C         140.5562  137.3072  163.7671 C.3     1  UNL1        0.0320
      2 C         141.7837  138.1313  163.5139 C.3     1  UNL1        0.0932
      3 C         142.1036  138.5926  162.1229 C.3     1  UNL1        0.0286
      4 C         143.3310  139.4167  161.8697 C.3     1  UNL1        0.0193
      5 C         144.2386  139.7796  163.0076 C.3     1  UNL1        0.0700
      6 C         143.9187  139.3183  164.3986 C.3     1  UNL1        0.0193
      7 C         142.6912  138.4941  164.6517 C.3     1  UNL1        0.0286
      8 C         143.5775  139.3262  163.1954 C.3     1  UNL1        0.1562
      9 O         142.4676  138.5810  163.4243 O.3     1  UNL1       -0.3572
     10 N         145.4661  140.6037  162.7544 N.3     1  UNL1       -0.2926
     11 H         145.6031  140.6252  161.7439 H       1  UNL1        0.1236
     12 C         145.5264  142.0251  163.2298 C.3     1  UNL1        0.1152
     13 C         144.3243  142.9122  163.0963 C.ar    1  UNL1        0.0765
     14 C         143.6906  143.5060  164.3195 C.ar    1  UNL1        0.0193
     15 C         142.4885  144.3931  164.1859 C.ar    1  UNL1        0.0411
     16 C         141.9200  144.6866  162.8292 C.ar    1  UNL1        0.1708
     17 C         142.5535  144.0929  161.6061 C.ar    1  UNL1        0.1682
     18 N         143.7557  143.2057  161.7396 N.ar    1  UNL1       -0.2304
     19 N         141.9850  144.3863  160.2494 N.am    1  UNL1       -0.2639
     20 C         140.7829  145.2735  160.1158 C.2     1  UNL1        0.2718
     21 O         140.2143  145.5669  158.7591 O.2     1  UNL1       -0.2707
     22 C         140.1492  145.8672  161.3390 C.3     1  UNL1        0.2898
     23 O         140.7178  145.5738  162.6957 O.3     1  UNL1       -0.4628
     24 H         142.4008  143.9967  159.4466 H       1  UNL1        0.1565
     25 C         139.2965  137.9656  164.2464 C.3     1  UNL1        0.0327
     26 C         139.7754  142.1051  165.9451 C.ar    1  UNL1        0.2249
     27 C         139.2195  143.2872  165.2078 C.ar    1  UNL1        0.0593
     28 C         138.5041  143.0895  163.9043 C.ar    1  UNL1        0.0254
     29 C         138.3444  141.7097  163.3381 C.ar    1  UNL1        0.0990
     30 N         137.6290  141.5120  162.0347 N.ar    1  UNL1       -0.2400
     31 C         137.4693  140.1322  161.4685 C.ar    1  UNL1        0.1281
     32 C         138.0252  138.9500  162.2057 C.ar    1  UNL1        0.1566
     33 F         137.8655  137.5702  161.6395 F       1  UNL1       -0.2028
     34 C         138.7406  139.1477  163.5092 C.ar    1  UNL1        0.0261
     35 C         138.9003  140.5276  164.0754 C.ar    1  UNL1        0.1002
     36 N         139.6157  140.7253  165.3789 N.ar    1  UNL1       -0.2104
     37 O         140.4908  142.3027  167.2485 O.3     1  UNL1       -0.4600
     38 C         141.9860  142.4203  167.2731 C.3     1  UNL1        0.2134
     39 C         142.8292  141.2094  167.5427 C.3     1  UNL1        0.1253
     40 C         142.4354  140.2468  168.6236 C.3     1  UNL1        0.3540
     41 F         143.1689  141.0798  169.6326 F       1  UNL1       -0.1923
     42 F         141.7020  139.4138  167.6146 F       1  UNL1       -0.1923
     43 C         142.0417  139.2842  169.7045 C.2     1  UNL1        0.3789
     44 O         142.9245  138.1147  170.0253 O.2     1  UNL1       -0.2440
     45 O         140.7652  139.4911  170.4646 O.3     1  UNL1       -0.4448
     46 C         139.5691  141.7938  170.3351 C.3     1  UNL1        0.0513
     47 C         139.6866  140.3645  169.8955 C.3     1  UNL1        0.2087
@<TRIPOS>BOND
     1    46    47    1
     2    47    45    1
     3    45    43    1
     4    43    44    2
     5    43    40    1
     6    40    41    1
     7    40    42    1
     8    40    39    1
     9    39    38    1
    10    38    37    1
    11    37    26    1
    12    26    27   ar
    13    27    28   ar
    14    28    29   ar
    15    29    30   ar
    16    30    31   ar
    17    31    32   ar
    18    32    33    1
    19    32    34   ar
    20    34    25    1
    21    25     1    1
    22     1     2    1
    23     2     3    1
    24     3     4    1
    25     4     5    1
    26     5    10    1
    27    10    12    1
    28    12    13    1
    29    13    14   ar
    30    14    15   ar
    31    15    16   ar
    32    16    17   ar
    33    17    18   ar
    34    17    19    1
    35    19    20   am
    36    20    21    2
    37    20    22    1
    38    22    23    1
    39     5     6    1
    40     6     7    1
    41     5     8    1
    42     8     9    1
    43    34    35   ar
    44    35    36   ar
    45    36    26   ar
    46    35    29   ar
    47     7     2    1
    48     9     2    1
    49    18    13   ar
    50    23    16    1
    51    10    11    1
    52    19    24    1
@<TRIPOS>MOLECULE
*****
 47 52 0 0 0
SMALL
GASTEIGER

@<TRIPOS>ATOM
      1 C         140.7178  137.2456  163.1389 C.3     1  UNL1        0.0320
      2 C         141.9388  138.1167  163.1283 C.3     1  UNL1        0.0932
      3 C         142.6639  138.4075  164.4088 C.3     1  UNL1        0.0286
      4 C         143.8849  139.2786  164.3982 C.3     1  UNL1        0.0193
      5 C         144.3810  139.8590  163.1070 C.3     1  UNL1        0.0700
      6 C         143.6560  139.5682  161.8264 C.3     1  UNL1        0.0193
      7 C         142.4348  138.6970  161.8371 C.3     1  UNL1        0.0286
      8 C         143.7075  139.3873  163.0629 C.3     1  UNL1        0.1562
      9 O         142.6034  138.5996  163.0725 O.3     1  UNL1       -0.3572
     10 N         145.6020  140.7301  163.0963 N.3     1  UNL1       -0.2926
     11 H         145.9106  140.7927  162.1261 H       1  UNL1        0.1236
     12 C         145.5261  142.1344  163.6181 C.3     1  UNL1        0.1152
     13 C         144.2921  142.9549  163.3862 C.ar    1  UNL1        0.0765
     14 C         143.4917  143.4521  164.5534 C.ar    1  UNL1        0.0193
     15 C         142.2576  144.2726  164.3215 C.ar    1  UNL1        0.0411
     16 C         141.8239  144.5960  162.9225 C.ar    1  UNL1        0.1708
     17 C         142.6242  144.0988  161.7553 C.ar    1  UNL1        0.1682
     18 N         143.8583  143.2782  161.9872 N.ar    1  UNL1       -0.2304
     19 N         142.1904  144.4222  160.3563 N.am    1  UNL1       -0.2639
     20 C         140.9564  145.2427  160.1244 C.2     1  UNL1        0.2718
     21 O         140.5226  145.5661  158.7254 O.2     1  UNL1       -0.2707
     22 C         140.1560  145.7399  161.2916 C.3     1  UNL1        0.2898
     23 O         140.5898  145.4166  162.6907 O.3     1  UNL1       -0.4628
     24 H         142.7157  144.0959  159.5902 H       1  UNL1        0.1565
     25 C         139.4043  137.8010  163.6041 C.3     1  UNL1        0.0327
     26 C         139.9368  141.2872  166.3992 C.ar    1  UNL1        0.2249
     27 C         139.5107  142.6611  165.9742 C.ar    1  UNL1        0.0593
     28 C         138.9070  142.8730  164.6174 C.ar    1  UNL1        0.0254
     29 C         138.7295  141.7110  163.6858 C.ar    1  UNL1        0.0990
     30 N         138.1259  141.9228  162.3290 N.ar    1  UNL1       -0.2400
     31 C         137.9483  140.7608  161.3973 C.ar    1  UNL1        0.1281
     32 C         138.3745  139.3868  161.8223 C.ar    1  UNL1        0.1566
     33 F         138.1970  138.2247  160.8907 F       1  UNL1       -0.2028
     34 C         138.9781  139.1749  163.1791 C.ar    1  UNL1        0.0261
     35 C         139.1556  140.3370  164.1108 C.ar    1  UNL1        0.1002
     36 N         139.7593  140.1252  165.4675 N.ar    1  UNL1       -0.2104
     37 O         140.5405  141.0753  167.7559 O.3     1  UNL1       -0.4600
     38 C         141.3940  139.8698  168.0171 C.3     1  UNL1        0.2134
     39 C         142.6612  140.0053  168.8083 C.3     1  UNL1        0.1253
     40 C         143.0338  141.3293  169.4068 C.3     1  UNL1        0.3540
     41 F         142.7205  140.7991  170.7745 F       1  UNL1       -0.1923
     42 F         143.3471  141.8594  168.0391 F       1  UNL1       -0.1923
     43 C         143.4064  142.6532  170.0053 C.2     1  UNL1        0.3789
     44 O         144.8450  143.0748  170.0569 O.2     1  UNL1       -0.2440
     45 O         142.3404  143.5557  170.5524 O.3     1  UNL1       -0.4448
     46 C         139.8287  142.8919  170.5694 C.3     1  UNL1        0.0513
     47 C         140.9840  143.5877  169.9129 C.3     1  UNL1        0.2087
@<TRIPOS>BOND
     1    46    47    1
     2    47    45    1
     3    45    43    1
     4    43    44    2
     5    43    40    1
     6    40    41    1
     7    40    42    1
     8    40    39    1
     9    39    38    1
    10    38    37    1
    11    37    26    1
    12    26    27   ar
    13    27    28   ar
    14    28    29   ar
    15    29    30   ar
    16    30    31   ar
    17    31    32   ar
    18    32    33    1
    19    32    34   ar
    20    34    25    1
    21    25     1    1
    22     1     2    1
    23     2     3    1
    24     3     4    1
    25     4     5    1
    26     5    10    1
    27    10    12    1
    28    12    13    1
    29    13    14   ar
    30    14    15   ar
    31    15    16   ar
    32    16    17   ar
    33    17    18   ar
    34    17    19    1
    35    19    20   am
    36    20    21    2
    37    20    22    1
    38    22    23    1
    39     5     6    1
    40     6     7    1
    41     5     8    1
    42     8     9    1
    43    34    35   ar
    44    35    36   ar
    45    36    26   ar
    46    35    29   ar
    47     7     2    1
    48     9     2    1
    49    18    13   ar
    50    23    16    1
    51    10    11    1
    52    19    24    1
@<TRIPOS>MOLECULE
*****
 47 52 0 0 0
SMALL
GASTEIGER

@<TRIPOS>ATOM
      1 C         138.2690  138.3854  162.6018 C.3     1  UNL1        0.0320
      2 C         138.1030  139.7632  163.1711 C.3     1  UNL1        0.0932
      3 C         138.4628  140.0316  164.6023 C.3     1  UNL1        0.0286
      4 C         138.2969  141.4094  165.1717 C.3     1  UNL1        0.0193
      5 C         137.7711  142.5188  164.3097 C.3     1  UNL1        0.0700
      6 C         137.4113  142.2503  162.8785 C.3     1  UNL1        0.0193
      7 C         137.5773  140.8725  162.3091 C.3     1  UNL1        0.0286
      8 C         137.8448  141.7802  163.9533 C.3     1  UNL1        0.1562
      9 O         137.9949  140.5344  163.4384 O.3     1  UNL1       -0.3572
     10 N         137.6052  143.8965  164.8790 N.3     1  UNL1       -0.2926
     11 H         137.2074  143.7839  165.8115 H       1  UNL1        0.1236
     12 C         138.7960  144.7974  165.0221 C.3     1  UNL1        0.1152
     13 C         139.9804  144.6241  164.1183 C.ar    1  UNL1        0.0765
     14 C         139.9498  145.1827  162.7264 C.ar    1  UNL1        0.0193
     15 C         141.1343  145.0094  161.8226 C.ar    1  UNL1        0.0411
     16 C         142.3493  144.2776  162.3105 C.ar    1  UNL1        0.1708
     17 C         142.3800  143.7190  163.7022 C.ar    1  UNL1        0.1682
     18 N         141.1955  143.8922  164.6061 N.ar    1  UNL1       -0.2304
     19 N         143.5950  142.9871  164.1901 N.am    1  UNL1       -0.2639
     20 C         144.7795  142.8139  163.2862 C.2     1  UNL1        0.2718
     21 O         145.9945  142.0820  163.7741 O.2     1  UNL1       -0.2707
     22 C         144.7489  143.3725  161.8944 C.3     1  UNL1        0.2898
     23 O         143.5338  144.1043  161.4065 O.3     1  UNL1       -0.4628
     24 H         143.6151  142.6205  165.1035 H       1  UNL1        0.1565
     25 C         139.5645  137.6508  162.7811 C.3     1  UNL1        0.0327
     26 C         143.2127  138.6389  165.2232 C.ar    1  UNL1        0.2249
     27 C         144.4562  139.1352  164.5468 C.ar    1  UNL1        0.0593
     28 C         144.4835  139.3020  163.0563 C.ar    1  UNL1        0.0254
     29 C         143.2675  138.9726  162.2423 C.ar    1  UNL1        0.0990
     30 N         143.2949  139.1395  160.7519 N.ar    1  UNL1       -0.2400
     31 C         142.0788  138.8101  159.9378 C.ar    1  UNL1        0.1281
     32 C         140.8353  138.3139  160.6142 C.ar    1  UNL1        0.1566
     33 F         139.6193  137.9845  159.8002 F       1  UNL1       -0.2028
     34 C         140.8079  138.1470  162.1047 C.ar    1  UNL1        0.0261
     35 C         142.0241  138.4764  162.9187 C.ar    1  UNL1        0.1002
     36 N         141.9967  138.3095  164.4091 N.ar    1  UNL1       -0.2104
     37 O         143.1853  138.4721  166.7136 O.3     1  UNL1       -0.4600
     38 C         142.5605  139.5289  167.5753 C.3     1  UNL1        0.2134
     39 C         141.0672  139.6513  167.6478 C.3     1  UNL1        0.1253
     40 C         140.4087  140.0448  168.9369 C.3     1  UNL1        0.3540
     41 F         141.6365  139.6284  169.6912 F       1  UNL1       -0.1923
     42 F         139.1809  140.4612  168.1826 F       1  UNL1       -0.1923
     43 C         139.7503  140.4382  170.2259 C.2     1  UNL1        0.3789
     44 O         139.3010  139.3820  171.1915 O.2     1  UNL1       -0.2440
     45 O         139.5411  141.8880  170.5494 O.3     1  UNL1       -0.4448
     46 C         141.6833  143.2641  170.0330 C.3     1  UNL1        0.0513
     47 C         140.2455  142.9439  169.7502 C.3     1  UNL1        0.2087
@<TRIPOS>BOND
     1    46    47    1
     2    47    45    1
     3    45    43    1
     4    43    44    2
     5    43    40    1
     6    40    41    1
     7    40    42    1
     8    40    39    1
     9    39    38    1
    10    38    37    1
    11    37    26    1
    12    26    27   ar
    13    27    28   ar
    14    28    29   ar
    15    29    30   ar
    16    30    31   ar
    17    31    32   ar
    18    32    33    1
    19    32    34   ar
    20    34    25    1
    21    25     1    1
    22     1     2    1
    23     2     3    1
    24     3     4    1
    25     4     5    1
    26     5    10    1
    27    10    12    1
    28    12    13    1
    29    13    14   ar
    30    14    15   ar
    31    15    16   ar
    32    16    17   ar
    33    17    18   ar
    34    17    19    1
    35    19    20   am
    36    20    21    2
    37    20    22    1
    38    22    23    1
    39     5     6    1
    40     6     7    1
    41     5     8    1
    42     8     9    1
    43    34    35   ar
    44    35    36   ar
    45    36    26   ar
    46    35    29   ar
    47     7     2    1
    48     9     2    1
    49    18    13   ar
    50    23    16    1
    51    10    11    1
    52    19    24    1
@<TRIPOS>MOLECULE
*****
 47 52 0 0 0
SMALL
GASTEIGER

@<TRIPOS>ATOM
      1 C         138.5886  138.0860  163.2716 C.3     1  UNL1        0.0320
      2 C         138.3992  139.5343  163.6128 C.3     1  UNL1        0.0932
      3 C         138.9056  140.0695  164.9194 C.3     1  UNL1        0.0286
      4 C         138.7161  141.5178  165.2607 C.3     1  UNL1        0.0193
      5 C         138.0203  142.4310  164.2953 C.3     1  UNL1        0.0700
      6 C         137.5139  141.8959  162.9887 C.3     1  UNL1        0.0193
      7 C         137.7034  140.4475  162.6475 C.3     1  UNL1        0.0286
      8 C         138.1007  141.6448  164.0642 C.3     1  UNL1        0.1562
      9 O         138.2720  140.3352  163.7556 O.3     1  UNL1       -0.3572
     10 N         137.8309  143.8793  164.6366 N.3     1  UNL1       -0.2926
     11 H         137.5832  143.9189  165.6252 H       1  UNL1        0.1236
     12 C         138.9551  144.8512  164.4325 C.3     1  UNL1        0.1152
     13 C         139.8389  144.7332  163.2263 C.ar    1  UNL1        0.0765
     14 C         141.1796  144.0702  163.3408 C.ar    1  UNL1        0.0193
     15 C         142.0633  143.9522  162.1346 C.ar    1  UNL1        0.0411
     16 C         141.6065  144.4973  160.8139 C.ar    1  UNL1        0.1708
     17 C         140.2659  145.1602  160.6994 C.ar    1  UNL1        0.1682
     18 N         139.3820  145.2782  161.9056 N.ar    1  UNL1       -0.2304
     19 N         139.8091  145.7053  159.3787 N.am    1  UNL1       -0.2639
     20 C         140.6929  145.5873  158.1725 C.2     1  UNL1        0.2718
     21 O         140.2360  146.1323  156.8518 O.2     1  UNL1       -0.2707
     22 C         142.0336  144.9243  158.2870 C.3     1  UNL1        0.2898
     23 O         142.4904  144.3793  159.6077 O.3     1  UNL1       -0.4628
     24 H         138.9292  146.1404  159.3036 H       1  UNL1        0.1565
     25 C         139.9065  137.6071  162.7387 C.3     1  UNL1        0.0327
     26 C         143.2387  139.0641  165.3889 C.ar    1  UNL1        0.2249
     27 C         144.2383  140.0510  164.8629 C.ar    1  UNL1        0.0593
     28 C         144.1272  140.5523  163.4535 C.ar    1  UNL1        0.0254
     29 C         143.0165  140.0667  162.5702 C.ar    1  UNL1        0.0990
     30 N         142.9054  140.5680  161.1608 N.ar    1  UNL1       -0.2400
     31 C         141.7947  140.0824  160.2774 C.ar    1  UNL1        0.1281
     32 C         140.7950  139.0954  160.8034 C.ar    1  UNL1        0.1566
     33 F         139.6843  138.6097  159.9200 F       1  UNL1       -0.2028
     34 C         140.9061  138.5941  162.2127 C.ar    1  UNL1        0.0261
     35 C         142.0169  139.0798  163.0961 C.ar    1  UNL1        0.1002
     36 N         142.1280  138.5785  164.5055 N.ar    1  UNL1       -0.2104
     37 O         143.3499  138.5628  166.7983 O.3     1  UNL1       -0.4600
     38 C         142.7578  139.3560  167.9253 C.3     1  UNL1        0.2134
     39 C         141.3356  139.8261  167.8455 C.3     1  UNL1        0.1253
     40 C         140.5631  140.0958  169.1028 C.3     1  UNL1        0.3540
     41 F         141.7539  139.6925  169.9208 F       1  UNL1       -0.1923
     42 F         139.3723  140.4990  168.2847 F       1  UNL1       -0.1923
     43 C         139.7907  140.3654  170.3600 C.2     1  UNL1        0.3789
     44 O         139.3413  139.2242  171.2235 O.2     1  UNL1       -0.2440
     45 O         139.4678  141.7764  170.7539 O.3     1  UNL1       -0.4448
     46 C         140.3275  143.8688  169.4764 C.3     1  UNL1        0.0513
     47 C         140.4907  142.8584  170.5728 C.3     1  UNL1        0.2087
@<TRIPOS>BOND
     1    46    47    1
     2    47    45    1
     3    45    43    1
     4    43    44    2
     5    43    40    1
     6    40    41    1
     7    40    42    1
     8    40    39    1
     9    39    38    1
    10    38    37    1
    11    37    26    1
    12    26    27   ar
    13    27    28   ar
    14    28    29   ar
    15    29    30   ar
    16    30    31   ar
    17    31    32   ar
    18    32    33    1
    19    32    34   ar
    20    34    25    1
    21    25     1    1
    22     1     2    1
    23     2     3    1
    24     3     4    1
    25     4     5    1
    26     5    10    1
    27    10    12    1
    28    12    13    1
    29    13    14   ar
    30    14    15   ar
    31    15    16   ar
    32    16    17   ar
    33    17    18   ar
    34    17    19    1
    35    19    20   am
    36    20    21    2
    37    20    22    1
    38    22    23    1
    39     5     6    1
    40     6     7    1
    41     5     8    1
    42     8     9    1
    43    34    35   ar
    44    35    36   ar
    45    36    26   ar
    46    35    29   ar
    47     7     2    1
    48     9     2    1
    49    18    13   ar
    50    23    16    1
    51    10    11    1
    52    19    24    1
@<TRIPOS>MOLECULE
*****
 47 52 0 0 0
SMALL
GASTEIGER

@<TRIPOS>ATOM
      1 C         138.6702  138.5413  165.2952 C.3     1  UNL1        0.0320
      2 C         138.6086  140.0231  165.0704 C.3     1  UNL1        0.0932
      3 C         139.4765  140.9411  165.8791 C.3     1  UNL1        0.0286
      4 C         139.4149  142.4228  165.6543 C.3     1  UNL1        0.0193
      5 C         138.4855  142.9867  164.6207 C.3     1  UNL1        0.0700
      6 C         137.6176  142.0686  163.8119 C.3     1  UNL1        0.0193
      7 C         137.6792  140.5868  164.0368 C.3     1  UNL1        0.0286
      8 C         138.4843  142.1679  164.7081 C.3     1  UNL1        0.1562
      9 O         138.5400  140.8281  164.9114 O.3     1  UNL1       -0.3572
     10 N         138.4239  144.4684  164.3958 N.3     1  UNL1       -0.2926
     11 H         138.8094  144.9092  165.2310 H       1  UNL1        0.1236
     12 C         139.1277  145.0785  163.2201 C.3     1  UNL1        0.1152
     13 C         140.5348  144.6730  162.8951 C.ar    1  UNL1        0.0765
     14 C         141.6818  145.2684  163.6566 C.ar    1  UNL1        0.0193
     15 C         143.0889  144.8629  163.3317 C.ar    1  UNL1        0.0411
     16 C         143.3490  143.8620  162.2451 C.ar    1  UNL1        0.1708
     17 C         142.2021  143.2666  161.4836 C.ar    1  UNL1        0.1682
     18 N         140.7949  143.6721  161.8086 N.ar    1  UNL1       -0.2304
     19 N         142.4622  142.2657  160.3971 N.am    1  UNL1       -0.2639
     20 C         143.8693  141.8602  160.0721 C.2     1  UNL1        0.2718
     21 O         144.1295  140.8593  158.9856 O.2     1  UNL1       -0.2707
     22 C         145.0163  142.4556  160.8337 C.3     1  UNL1        0.2898
     23 O         144.7562  143.4565  161.9202 O.3     1  UNL1       -0.4628
     24 H         141.7094  141.8749  159.8972 H       1  UNL1        0.1565
     25 C         139.1619  137.6370  164.2041 C.3     1  UNL1        0.0327
     26 C         143.3380  138.5110  165.6346 C.ar    1  UNL1        0.2249
     27 C         144.3755  138.9983  164.6671 C.ar    1  UNL1        0.0593
     28 C         144.0211  139.1942  163.2228 C.ar    1  UNL1        0.0254
     29 C         142.6291  138.9029  162.7460 C.ar    1  UNL1        0.0990
     30 N         142.2746  139.0989  161.3017 N.ar    1  UNL1       -0.2400
     31 C         140.8826  138.8076  160.8249 C.ar    1  UNL1        0.1281
     32 C         139.8450  138.3203  161.7923 C.ar    1  UNL1        0.1566
     33 F         138.4530  138.0289  161.3155 F       1  UNL1       -0.2028
     34 C         140.1995  138.1243  163.2366 C.ar    1  UNL1        0.0261
     35 C         141.5916  138.4156  163.7135 C.ar    1  UNL1        0.1002
     36 N         141.9460  138.2196  165.1577 N.ar    1  UNL1       -0.2104
     37 O         143.6925  138.3150  167.0789 O.3     1  UNL1       -0.4600
     38 C         142.9399  139.0571  168.1432 C.3     1  UNL1        0.2134
     39 C         142.4905  140.4672  167.8992 C.3     1  UNL1        0.1253
     40 C         142.9138  141.5616  168.8338 C.3     1  UNL1        0.3540
     41 F         143.3389  142.3971  167.6628 F       1  UNL1       -0.1923
     42 F         142.4887  140.7261  170.0047 F       1  UNL1       -0.1923
     43 C         143.3371  142.6559  169.7683 C.2     1  UNL1        0.3789
     44 O         144.7947  142.9094  170.0150 O.2     1  UNL1       -0.2440
     45 O         142.3026  143.4967  170.4561 O.3     1  UNL1       -0.4448
     46 C         140.0340  144.7469  170.2563 C.3     1  UNL1        0.0513
     47 C         140.9155  143.5891  169.8927 C.3     1  UNL1        0.2087
@<TRIPOS>BOND
     1    46    47    1
     2    47    45    1
     3    45    43    1
     4    43    44    2
     5    43    40    1
     6    40    41    1
     7    40    42    1
     8    40    39    1
     9    39    38    1
    10    38    37    1
    11    37    26    1
    12    26    27   ar
    13    27    28   ar
    14    28    29   ar
    15    29    30   ar
    16    30    31   ar
    17    31    32   ar
    18    32    33    1
    19    32    34   ar
    20    34    25    1
    21    25     1    1
    22     1     2    1
    23     2     3    1
    24     3     4    1
    25     4     5    1
    26     5    10    1
    27    10    12    1
    28    12    13    1
    29    13    14   ar
    30    14    15   ar
    31    15    16   ar
    32    16    17   ar
    33    17    18   ar
    34    17    19    1
    35    19    20   am
    36    20    21    2
    37    20    22    1
    38    22    23    1
    39     5     6    1
    40     6     7    1
    41     5     8    1
    42     8     9    1
    43    34    35   ar
    44    35    36   ar
    45    36    26   ar
    46    35    29   ar
    47     7     2    1
    48     9     2    1
    49    18    13   ar
    50    23    16    1
    51    10    11    1
    52    19    24    1
@<TRIPOS>MOLECULE
*****
 47 52 0 0 0
SMALL
GASTEIGER

@<TRIPOS>ATOM
      1 C         137.6268  143.5311  163.7989 C.3     1  UNL1        0.0320
      2 C         139.0533  143.9910  163.7404 C.3     1  UNL1        0.0932
      3 C         140.0450  143.4894  164.7478 C.3     1  UNL1        0.0286
      4 C         141.4715  143.9493  164.6893 C.3     1  UNL1        0.0193
      5 C         141.9064  144.9109  163.6234 C.3     1  UNL1        0.0700
      6 C         140.9147  145.4126  162.6159 C.3     1  UNL1        0.0193
      7 C         139.4881  144.9526  162.6745 C.3     1  UNL1        0.0286
      8 C         141.1140  144.6873  163.6152 C.3     1  UNL1        0.1562
      9 O         139.8241  144.2715  163.6680 O.3     1  UNL1       -0.3572
     10 N         143.3329  145.3709  163.5649 N.3     1  UNL1       -0.2926
     11 H         143.6832  145.3663  164.5228 H       1  UNL1        0.1236
     12 C         144.3303  144.6178  162.7354 C.3     1  UNL1        0.1152
     13 C         144.3163  143.1180  162.7240 C.ar    1  UNL1        0.0765
     14 C         144.7055  142.3549  163.9554 C.ar    1  UNL1        0.0193
     15 C         144.6915  140.8550  163.9440 C.ar    1  UNL1        0.0411
     16 C         144.2884  140.1182  162.7012 C.ar    1  UNL1        0.1708
     17 C         143.8992  140.8812  161.4698 C.ar    1  UNL1        0.1682
     18 N         143.9132  142.3811  161.4812 N.ar    1  UNL1       -0.2304
     19 N         143.4961  140.1443  160.2270 N.am    1  UNL1       -0.2639
     20 C         143.4821  138.6445  160.2156 C.2     1  UNL1        0.2718
     21 O         143.0790  137.9076  158.9728 O.2     1  UNL1       -0.2707
     22 C         143.8713  137.8814  161.4471 C.3     1  UNL1        0.2898
     23 O         144.2744  138.6182  162.6898 O.3     1  UNL1       -0.4628
     24 H         143.2407  140.6451  159.4188 H       1  UNL1        0.1565
     25 C         137.2034  142.3029  163.0489 C.3     1  UNL1        0.0327
     26 C         138.6465  138.8386  165.5321 C.ar    1  UNL1        0.2249
     27 C         139.6808  137.9015  164.9827 C.ar    1  UNL1        0.0593
     28 C         140.2342  138.1191  163.6056 C.ar    1  UNL1        0.0254
     29 C         139.7531  139.2738  162.7779 C.ar    1  UNL1        0.0990
     30 N         140.3065  139.4915  161.4007 N.ar    1  UNL1       -0.2400
     31 C         139.8255  140.6462  160.5730 C.ar    1  UNL1        0.1281
     32 C         138.7910  141.5834  161.1224 C.ar    1  UNL1        0.1566
     33 F         138.3100  142.7381  160.2947 F       1  UNL1       -0.2028
     34 C         138.2377  141.3657  162.4995 C.ar    1  UNL1        0.0261
     35 C         138.7188  140.2109  163.3273 C.ar    1  UNL1        0.1002
     36 N         138.1655  139.9933  164.7044 N.ar    1  UNL1       -0.2104
     37 O         138.0932  138.6209  166.9092 O.3     1  UNL1       -0.4600
     38 C         138.5697  139.4683  168.0515 C.3     1  UNL1        0.2134
     39 C         140.0029  139.9066  168.1133 C.3     1  UNL1        0.1253
     40 C         140.5236  140.5977  169.3386 C.3     1  UNL1        0.3540
     41 F         139.7269  141.8193  168.9881 F       1  UNL1       -0.1923
     42 F         141.3203  139.3761  169.6891 F       1  UNL1       -0.1923
     43 C         141.0443  141.2889  170.5638 C.2     1  UNL1        0.3789
     44 O         140.5171  140.9145  171.9173 O.2     1  UNL1       -0.2440
     45 O         142.0923  142.3544  170.4356 O.3     1  UNL1       -0.4448
     46 C         143.3659  142.3640  168.1712 C.3     1  UNL1        0.0513
     47 C         143.3393  142.0887  169.6455 C.3     1  UNL1        0.2087
@<TRIPOS>BOND
     1    46    47    1
     2    47    45    1
     3    45    43    1
     4    43    44    2
     5    43    40    1
     6    40    41    1
     7    40    42    1
     8    40    39    1
     9    39    38    1
    10    38    37    1
    11    37    26    1
    12    26    27   ar
    13    27    28   ar
    14    28    29   ar
    15    29    30   ar
    16    30    31   ar
    17    31    32   ar
    18    32    33    1
    19    32    34   ar
    20    34    25    1
    21    25     1    1
    22     1     2    1
    23     2     3    1
    24     3     4    1
    25     4     5    1
    26     5    10    1
    27    10    12    1
    28    12    13    1
    29    13    14   ar
    30    14    15   ar
    31    15    16   ar
    32    16    17   ar
    33    17    18   ar
    34    17    19    1
    35    19    20   am
    36    20    21    2
    37    20    22    1
    38    22    23    1
    39     5     6    1
    40     6     7    1
    41     5     8    1
    42     8     9    1
    43    34    35   ar
    44    35    36   ar
    45    36    26   ar
    46    35    29   ar
    47     7     2    1
    48     9     2    1
    49    18    13   ar
    50    23    16    1
    51    10    11    1
    52    19    24    1
@<TRIPOS>MOLECULE
*****
 47 52 0 0 0
SMALL
GASTEIGER

@<TRIPOS>ATOM
      1 C         144.8501  140.9298  163.2830 C.3     1  UNL1        0.0320
      2 C         143.9514  142.1277  163.1979 C.3     1  UNL1        0.0932
      3 C         143.3485  142.7031  164.4451 C.3     1  UNL1        0.0286
      4 C         142.4498  143.9010  164.3600 C.3     1  UNL1        0.0193
      5 C         142.1539  144.5235  163.0277 C.3     1  UNL1        0.0700
      6 C         142.7567  143.9481  161.7806 C.3     1  UNL1        0.0193
      7 C         143.6555  142.7501  161.8657 C.3     1  UNL1        0.0286
      8 C         142.6523  143.8681  163.0243 C.3     1  UNL1        0.1562
      9 O         143.4649  142.7849  163.1012 O.3     1  UNL1       -0.3572
     10 N         141.2552  145.7214  162.9427 N.3     1  UNL1       -0.2926
     11 H         141.4880  146.2032  162.0743 H       1  UNL1        0.1236
     12 C         139.7658  145.5439  162.9534 C.3     1  UNL1        0.1152
     13 C         139.1681  144.2023  162.6486 C.ar    1  UNL1        0.0765
     14 C         138.6007  143.3648  163.7562 C.ar    1  UNL1        0.0193
     15 C         138.0031  142.0232  163.4513 C.ar    1  UNL1        0.0411
     16 C         137.9728  141.5191  162.0389 C.ar    1  UNL1        0.1708
     17 C         138.5402  142.3566  160.9313 C.ar    1  UNL1        0.1682
     18 N         139.1378  143.6982  161.2362 N.ar    1  UNL1       -0.2304
     19 N         138.5099  141.8524  159.5189 N.am    1  UNL1       -0.2639
     20 C         137.9122  140.5108  159.2141 C.2     1  UNL1        0.2718
     21 O         137.8819  140.0067  157.8017 O.2     1  UNL1       -0.2707
     22 C         137.3449  139.6733  160.3217 C.3     1  UNL1        0.2898
     23 O         137.3752  140.1775  161.7341 O.3     1  UNL1       -0.4628
     24 H         138.8822  142.4021  158.7920 H       1  UNL1        0.1565
     25 C         144.3056  139.6160  163.7602 C.3     1  UNL1        0.0327
     26 C         140.3003  139.3006  165.7871 C.ar    1  UNL1        0.2249
     27 C         139.1462  138.6629  165.0721 C.ar    1  UNL1        0.0593
     28 C         139.3271  138.1303  163.6816 C.ar    1  UNL1        0.0254
     29 C         140.6621  138.2354  163.0060 C.ar    1  UNL1        0.0990
     30 N         140.8430  137.7029  161.6154 N.ar    1  UNL1       -0.2400
     31 C         142.1781  137.8080  160.9398 C.ar    1  UNL1        0.1281
     32 C         143.3323  138.4457  161.6547 C.ar    1  UNL1        0.1566
     33 F         144.6674  138.5509  160.9791 F       1  UNL1       -0.2028
     34 C         143.1514  138.9783  163.0453 C.ar    1  UNL1        0.0261
     35 C         141.8163  138.8731  163.7209 C.ar    1  UNL1        0.1002
     36 N         141.6354  139.4057  165.1115 N.ar    1  UNL1       -0.2104
     37 O         140.1195  139.8331  167.1776 O.3     1  UNL1       -0.4600
     38 C         141.2309  139.7120  168.1776 C.3     1  UNL1        0.2134
     39 C         142.5028  140.4829  167.9823 C.3     1  UNL1        0.1253
     40 C         142.9289  141.4975  169.0017 C.3     1  UNL1        0.3540
     41 F         143.3644  140.3932  169.9187 F       1  UNL1       -0.1923
     42 F         142.4934  142.6017  168.0847 F       1  UNL1       -0.1923
     43 C         143.3550  142.5120  170.0211 C.2     1  UNL1        0.3789
     44 O         144.7642  143.0259  170.0241 O.2     1  UNL1       -0.2440
     45 O         142.3719  143.0127  171.0374 O.3     1  UNL1       -0.4448
     46 C         139.8477  142.7902  170.4643 C.3     1  UNL1        0.0513
     47 C         141.0560  142.3149  171.2152 C.3     1  UNL1        0.2087
@<TRIPOS>BOND
     1    46    47    1
     2    47    45    1
     3    45    43    1
     4    43    44    2
     5    43    40    1
     6    40    41    1
     7    40    42    1
     8    40    39    1
     9    39    38    1
    10    38    37    1
    11    37    26    1
    12    26    27   ar
    13    27    28   ar
    14    28    29   ar
    15    29    30   ar
    16    30    31   ar
    17    31    32   ar
    18    32    33    1
    19    32    34   ar
    20    34    25    1
    21    25     1    1
    22     1     2    1
    23     2     3    1
    24     3     4    1
    25     4     5    1
    26     5    10    1
    27    10    12    1
    28    12    13    1
    29    13    14   ar
    30    14    15   ar
    31    15    16   ar
    32    16    17   ar
    33    17    18   ar
    34    17    19    1
    35    19    20   am
    36    20    21    2
    37    20    22    1
    38    22    23    1
    39     5     6    1
    40     6     7    1
    41     5     8    1
    42     8     9    1
    43    34    35   ar
    44    35    36   ar
    45    36    26   ar
    46    35    29   ar
    47     7     2    1
    48     9     2    1
    49    18    13   ar
    50    23    16    1
    51    10    11    1
    52    19    24    1
@<TRIPOS>MOLECULE
*****
 47 52 0 0 0
SMALL
GASTEIGER

@<TRIPOS>ATOM
      1 C         144.0095  139.0029  163.8037 C.3     1  UNL1        0.0320
      2 C         142.6672  138.6841  163.2150 C.3     1  UNL1        0.0932
      3 C         142.4213  138.8950  161.7504 C.3     1  UNL1        0.0286
      4 C         141.0790  138.5762  161.1617 C.3     1  UNL1        0.0193
      5 C         139.9826  138.0464  162.0376 C.3     1  UNL1        0.0700
      6 C         140.2285  137.8354  163.5022 C.3     1  UNL1        0.0193
      7 C         141.5708  138.1543  164.0909 C.3     1  UNL1        0.0286
      8 C         140.7015  138.2067  162.4056 C.3     1  UNL1        0.1562
      9 O         141.9152  138.4950  162.9379 O.3     1  UNL1       -0.3572
     10 N         138.6403  137.7275  161.4490 N.3     1  UNL1       -0.2926
     11 H         138.2588  136.9510  161.9893 H       1  UNL1        0.1236
     12 C         137.5752  138.7823  161.3952 C.3     1  UNL1        0.1152
     13 C         137.9542  140.2333  161.4272 C.ar    1  UNL1        0.0765
     14 C         137.5152  141.0981  162.5716 C.ar    1  UNL1        0.0193
     15 C         137.8943  142.5490  162.6036 C.ar    1  UNL1        0.0411
     16 C         138.7123  143.1352  161.4914 C.ar    1  UNL1        0.1708
     17 C         139.1513  142.2705  160.3470 C.ar    1  UNL1        0.1682
     18 N         138.7723  140.8195  160.3150 N.ar    1  UNL1       -0.2304
     19 N         139.9694  142.8567  159.2348 N.am    1  UNL1       -0.2639
     20 C         140.3484  144.3076  159.2668 C.2     1  UNL1        0.2718
     21 O         141.1664  144.8938  158.1545 O.2     1  UNL1       -0.2707
     22 C         139.9094  145.1724  160.4112 C.3     1  UNL1        0.2898
     23 O         139.0914  144.5862  161.5234 O.3     1  UNL1       -0.4628
     24 H         140.2575  142.2891  158.4837 H       1  UNL1        0.1565
     25 C         144.1489  140.1257  164.7886 C.3     1  UNL1        0.0327
     26 C         140.0961  141.8028  165.7944 C.ar    1  UNL1        0.2249
     27 C         139.7426  143.2033  165.3902 C.ar    1  UNL1        0.0593
     28 C         140.7401  144.0449  164.6507 C.ar    1  UNL1        0.0254
     29 C         142.0910  143.4859  164.3155 C.ar    1  UNL1        0.0990
     30 N         143.0885  144.3274  163.5760 N.ar    1  UNL1       -0.2400
     31 C         144.4394  143.7684  163.2407 C.ar    1  UNL1        0.1281
     32 C         144.7930  142.3678  163.6450 C.ar    1  UNL1        0.1566
     33 F         146.1439  141.8088  163.3097 F       1  UNL1       -0.2028
     34 C         143.7955  141.5262  164.3844 C.ar    1  UNL1        0.0261
     35 C         142.4445  142.0853  164.7197 C.ar    1  UNL1        0.1002
     36 N         141.4470  141.2438  165.4592 N.ar    1  UNL1       -0.2104
     37 O         139.0986  140.9612  166.5339 O.3     1  UNL1       -0.4600
     38 C         139.5693  139.8580  167.4346 C.3     1  UNL1        0.2134
     39 C         139.8981  140.1495  168.8688 C.3     1  UNL1        0.1253
     40 C         141.2517  139.8016  169.4137 C.3     1  UNL1        0.3540
     41 F         140.7756  140.1205  170.7999 F       1  UNL1       -0.1923
     42 F         141.7277  139.4826  168.0274 F       1  UNL1       -0.1923
     43 C         142.6052  139.4536  169.9585 C.2     1  UNL1        0.3789
     44 O         142.9875  138.0167  170.1559 O.2     1  UNL1       -0.2440
     45 O         143.5765  140.5427  170.3060 O.3     1  UNL1       -0.4448
     46 C         142.7231  142.9953  170.3838 C.3     1  UNL1        0.0513
     47 C         143.4476  141.8941  169.6680 C.3     1  UNL1        0.2087
@<TRIPOS>BOND
     1    46    47    1
     2    47    45    1
     3    45    43    1
     4    43    44    2
     5    43    40    1
     6    40    41    1
     7    40    42    1
     8    40    39    1
     9    39    38    1
    10    38    37    1
    11    37    26    1
    12    26    27   ar
    13    27    28   ar
    14    28    29   ar
    15    29    30   ar
    16    30    31   ar
    17    31    32   ar
    18    32    33    1
    19    32    34   ar
    20    34    25    1
    21    25     1    1
    22     1     2    1
    23     2     3    1
    24     3     4    1
    25     4     5    1
    26     5    10    1
    27    10    12    1
    28    12    13    1
    29    13    14   ar
    30    14    15   ar
    31    15    16   ar
    32    16    17   ar
    33    17    18   ar
    34    17    19    1
    35    19    20   am
    36    20    21    2
    37    20    22    1
    38    22    23    1
    39     5     6    1
    40     6     7    1
    41     5     8    1
    42     8     9    1
    43    34    35   ar
    44    35    36   ar
    45    36    26   ar
    46    35    29   ar
    47     7     2    1
    48     9     2    1
    49    18    13   ar
    50    23    16    1
    51    10    11    1
    52    19    24    1
