@<TRIPOS>MOLECULE
*****
 39 42 0 0 0
SMALL
GASTEIGER

@<TRIPOS>ATOM
      1 N         138.4587  138.8729  165.4096 N.3     1  UNL1       -0.2684
      2 C         138.1646  140.1836  164.7423 C.3     1  UNL1        0.1035
      3 C         138.3411  140.3266  163.2596 C.3     1  UNL1        0.1470
      4 C         138.5176  140.4696  161.7768 C.3     1  UNL1        0.1035
      5 N         138.9882  139.3018  160.9615 N.3     1  UNL1       -0.2673
      6 C         139.2823  137.9910  161.6290 C.3     1  UNL1        0.1035
      7 C         139.1058  137.8480  163.1116 C.3     1  UNL1        0.1470
      8 C         138.9293  137.7051  164.5943 C.3     1  UNL1        0.1035
      9 O         138.8117  139.1588  162.4443 O.3     1  UNL1       -0.3530
     10 C         138.2822  138.7299  166.8924 C.3     1  UNL1        0.0761
     11 C         138.7616  139.8130  167.8126 C.3     1  UNL1        0.0646
     12 C         140.2238  139.9418  168.1218 C.3     1  UNL1        0.2068
     13 O         140.8351  141.2994  168.3037 O.3     1  UNL1       -0.4754
     14 C         142.8593  143.3378  164.8400 C.ar    1  UNL1        0.0686
     15 C         143.6821  142.6895  165.9137 C.ar    1  UNL1        0.0134
     16 C         143.0074  142.0101  167.0682 C.ar    1  UNL1        0.0376
     17 C         141.5098  141.9789  167.1492 C.ar    1  UNL1        0.1386
     18 C         140.6871  142.6272  166.0755 C.ar    1  UNL1        0.0376
     19 C         141.3619  143.3067  164.9209 C.ar    1  UNL1        0.0134
     20 N         144.2087  144.6968  162.5308 N.1     1  UNL1       -0.1908
     21 C         143.5340  144.0173  163.6854 C.1     1  UNL1        0.1004
     22 C         139.1647  139.4447  159.4789 C.3     1  UNL1        0.0913
     23 C         140.5274  139.3013  158.8685 C.3     1  UNL1        0.1084
     24 N         141.3744  140.5162  158.6308 N.3     1  UNL1       -0.1816
     25 H         140.7402  141.2703  158.3672 H       1  UNL1        0.1485
     26 S         142.2472  141.0483  159.7285 S.O2    1  UNL1        0.0451
     27 O         143.2019  139.9101  159.5213 O.2     1  UNL1       -0.1572
     28 O         141.2925  142.1866  159.9358 O.2     1  UNL1       -0.1572
     29 C         143.1200  141.5805  160.8263 C.3     1  UNL1        0.1952
     30 C         143.2834  140.8026  162.0984 C.ar    1  UNL1        0.0029
     31 C         142.0747  140.2963  162.8284 C.ar    1  UNL1       -0.0026
     32 C         142.2380  139.5184  164.1005 C.ar    1  UNL1        0.0036
     33 C         143.6101  139.2467  164.6425 C.ar    1  UNL1        0.0714
     34 C         144.8187  139.7530  163.9125 C.ar    1  UNL1        0.0036
     35 C         144.6553  140.5309  162.6405 C.ar    1  UNL1       -0.0026
     36 C         143.7734  138.4688  165.9146 C.3     1  UNL1        0.4186
     37 F         143.9368  137.6909  167.1866 F       1  UNL1       -0.1659
     38 F         142.2853  138.4647  166.1032 F       1  UNL1       -0.1659
     39 F         145.2615  138.4729  165.7260 F       1  UNL1       -0.1659
@<TRIPOS>BOND
     1    20    21    3
     2    21    14    1
     3    14    15   ar
     4    15    16   ar
     5    16    17   ar
     6    17    13    1
     7    13    12    1
     8    12    11    1
     9    11    10    1
    10    10     1    1
    11     1     2    1
    12     2     3    1
    13     3     4    1
    14     4     5    1
    15     5    22    1
    16    22    23    1
    17    23    24    1
    18    24    26    1
    19    26    27    2
    20    26    28    2
    21    26    29    1
    22    29    30    1
    23    30    31   ar
    24    31    32   ar
    25    32    33   ar
    26    33    36    1
    27    36    37    1
    28    36    38    1
    29    36    39    1
    30    33    34   ar
    31    34    35   ar
    32     5     6    1
    33     6     7    1
    34     7     8    1
    35     7     9    1
    36    17    18   ar
    37    18    19   ar
    38    19    14   ar
    39     8     1    1
    40     9     3    1
    41    35    30   ar
    42    24    25    1
@<TRIPOS>MOLECULE
*****
 39 42 0 0 0
SMALL
GASTEIGER

@<TRIPOS>ATOM
      1 N         138.7073  143.3657  162.1112 N.3     1  UNL1       -0.2684
      2 C         138.3286  141.9209  162.2487 C.3     1  UNL1        0.1035
      3 C         138.9339  140.8967  161.3351 C.3     1  UNL1        0.1470
      4 C         139.5392  139.8725  160.4215 C.3     1  UNL1        0.1035
      5 N         140.5231  140.2932  159.3703 N.3     1  UNL1       -0.2673
      6 C         140.9018  141.7382  159.2329 C.3     1  UNL1        0.1035
      7 C         140.2965  142.7623  160.1465 C.3     1  UNL1        0.1470
      8 C         139.6912  143.7864  161.0601 C.3     1  UNL1        0.1035
      9 O         139.9178  141.3174  160.2840 O.3     1  UNL1       -0.3530
     10 C         138.1020  144.3900  163.0248 C.3     1  UNL1        0.0761
     11 C         138.8436  144.8327  164.2512 C.3     1  UNL1        0.0646
     12 C         139.8931  143.9465  164.8538 C.3     1  UNL1        0.2068
     13 O         139.4900  142.7356  165.6419 O.3     1  UNL1       -0.4754
     14 C         142.4906  139.4840  166.4625 C.ar    1  UNL1        0.0686
     15 C         142.7292  140.8722  166.9782 C.ar    1  UNL1        0.0134
     16 C         141.7290  141.9560  166.7047 C.ar    1  UNL1        0.0376
     17 C         140.4902  141.6517  165.9154 C.ar    1  UNL1        0.1386
     18 C         140.2517  140.2635  165.3997 C.ar    1  UNL1        0.0376
     19 C         141.2519  139.1796  165.6733 C.ar    1  UNL1        0.0134
     20 N         144.4910  137.3162  167.0096 N.1     1  UNL1       -0.1908
     21 C         143.4908  138.4001  166.7360 C.1     1  UNL1        0.1004
     22 C         141.1284  139.2691  158.4567 C.3     1  UNL1        0.0913
     23 C         142.5283  138.7856  158.6948 C.3     1  UNL1        0.1084
     24 N         142.7846  137.6880  159.6845 N.3     1  UNL1       -0.1816
     25 H         143.5321  137.1116  159.2980 H       1  UNL1        0.1485
     26 S         143.1806  138.0244  161.0916 S.O2    1  UNL1        0.0451
     27 O         144.4545  138.6348  160.5871 O.2     1  UNL1       -0.1572
     28 O         141.9068  137.4140  161.5961 O.2     1  UNL1       -0.1572
     29 C         143.5767  138.3608  162.4988 C.3     1  UNL1        0.1952
     30 C         143.6731  139.7947  162.9283 C.ar    1  UNL1        0.0029
     31 C         144.8581  140.2623  163.7204 C.ar    1  UNL1       -0.0026
     32 C         144.9546  141.6962  164.1499 C.ar    1  UNL1        0.0036
     33 C         143.8661  142.6626  163.7874 C.ar    1  UNL1        0.0714
     34 C         142.6812  142.1950  162.9953 C.ar    1  UNL1        0.0036
     35 C         142.5848  140.7611  162.5658 C.ar    1  UNL1       -0.0026
     36 C         143.9626  144.0965  164.2169 C.3     1  UNL1        0.4186
     37 F         144.0590  145.5305  164.6464 F       1  UNL1       -0.1659
     38 F         144.4780  143.6606  165.5564 F       1  UNL1       -0.1659
     39 F         143.4472  144.5325  162.8774 F       1  UNL1       -0.1659
@<TRIPOS>BOND
     1    20    21    3
     2    21    14    1
     3    14    15   ar
     4    15    16   ar
     5    16    17   ar
     6    17    13    1
     7    13    12    1
     8    12    11    1
     9    11    10    1
    10    10     1    1
    11     1     2    1
    12     2     3    1
    13     3     4    1
    14     4     5    1
    15     5    22    1
    16    22    23    1
    17    23    24    1
    18    24    26    1
    19    26    27    2
    20    26    28    2
    21    26    29    1
    22    29    30    1
    23    30    31   ar
    24    31    32   ar
    25    32    33   ar
    26    33    36    1
    27    36    37    1
    28    36    38    1
    29    36    39    1
    30    33    34   ar
    31    34    35   ar
    32     5     6    1
    33     6     7    1
    34     7     8    1
    35     7     9    1
    36    17    18   ar
    37    18    19   ar
    38    19    14   ar
    39     8     1    1
    40     9     3    1
    41    35    30   ar
    42    24    25    1
@<TRIPOS>MOLECULE
*****
 39 42 0 0 0
SMALL
GASTEIGER

@<TRIPOS>ATOM
      1 N         140.8943  139.5850  158.9441 N.3     1  UNL1       -0.2684
      2 C         139.5815  139.2762  159.6006 C.3     1  UNL1        0.1035
      3 C         138.9115  140.3074  160.4594 C.3     1  UNL1        0.1470
      4 C         138.2414  141.3387  161.3183 C.3     1  UNL1        0.1035
      5 N         138.8842  142.6788  161.5206 N.3     1  UNL1       -0.2673
      6 C         140.1971  142.9876  160.8640 C.3     1  UNL1        0.1035
      7 C         140.8672  141.9564  160.0052 C.3     1  UNL1        0.1470
      8 C         141.5372  140.9251  159.1464 C.3     1  UNL1        0.1035
      9 O         139.5543  141.6475  160.6617 O.3     1  UNL1       -0.3530
     10 C         141.5644  138.5537  158.0853 C.3     1  UNL1        0.0761
     11 C         142.5912  137.6355  158.6790 C.3     1  UNL1        0.0646
     12 C         142.7295  137.5283  160.1688 C.3     1  UNL1        0.2068
     13 O         143.5409  138.5408  160.9215 O.3     1  UNL1       -0.4754
     14 C         143.1556  138.8579  165.3938 C.ar    1  UNL1        0.0686
     15 C         142.1128  138.1271  164.6011 C.ar    1  UNL1        0.0134
     16 C         142.2412  138.0214  163.1104 C.ar    1  UNL1        0.0376
     17 C         143.4125  138.6465  162.4122 C.ar    1  UNL1        0.1386
     18 C         144.4554  139.3773  163.2049 C.ar    1  UNL1        0.0376
     19 C         144.3269  139.4830  164.6957 C.ar    1  UNL1        0.0134
     20 N         142.8989  139.0694  168.3753 N.1     1  UNL1       -0.1908
     21 C         143.0273  138.9636  166.8845 C.1     1  UNL1        0.1004
     22 C         138.2142  143.7100  162.3793 C.3     1  UNL1        0.0913
     23 C         138.8977  145.0169  162.6533 C.3     1  UNL1        0.1084
     24 N         139.4764  145.2907  164.0098 N.3     1  UNL1       -0.1816
     25 H         138.7077  145.6110  164.5987 H       1  UNL1        0.1485
     26 S         140.1720  144.1960  164.7633 S.O2    1  UNL1        0.0451
     27 O         141.2984  144.2303  163.7734 O.2     1  UNL1       -0.1572
     28 O         139.0456  144.1618  165.7533 O.2     1  UNL1       -0.1572
     29 C         140.8676  143.1013  165.5169 C.3     1  UNL1        0.1952
     30 C         140.1687  141.7964  165.7593 C.ar    1  UNL1        0.0029
     31 C         140.1163  141.2193  167.1429 C.ar    1  UNL1       -0.0026
     32 C         139.4174  139.9144  167.3853 C.ar    1  UNL1        0.0036
     33 C         138.7708  139.1866  166.2440 C.ar    1  UNL1        0.0714
     34 C         138.8233  139.7637  164.8605 C.ar    1  UNL1        0.0036
     35 C         139.5222  141.0686  164.6181 C.ar    1  UNL1       -0.0026
     36 C         138.0719  137.8817  166.4864 C.3     1  UNL1        0.4186
     37 F         137.3730  136.5768  166.7288 F       1  UNL1       -0.1659
     38 F         137.1566  138.5540  167.4663 F       1  UNL1       -0.1659
     39 F         138.9872  137.2094  165.5065 F       1  UNL1       -0.1659
@<TRIPOS>BOND
     1    20    21    3
     2    21    14    1
     3    14    15   ar
     4    15    16   ar
     5    16    17   ar
     6    17    13    1
     7    13    12    1
     8    12    11    1
     9    11    10    1
    10    10     1    1
    11     1     2    1
    12     2     3    1
    13     3     4    1
    14     4     5    1
    15     5    22    1
    16    22    23    1
    17    23    24    1
    18    24    26    1
    19    26    27    2
    20    26    28    2
    21    26    29    1
    22    29    30    1
    23    30    31   ar
    24    31    32   ar
    25    32    33   ar
    26    33    36    1
    27    36    37    1
    28    36    38    1
    29    36    39    1
    30    33    34   ar
    31    34    35   ar
    32     5     6    1
    33     6     7    1
    34     7     8    1
    35     7     9    1
    36    17    18   ar
    37    18    19   ar
    38    19    14   ar
    39     8     1    1
    40     9     3    1
    41    35    30   ar
    42    24    25    1
@<TRIPOS>MOLECULE
*****
 39 42 0 0 0
SMALL
GASTEIGER

@<TRIPOS>ATOM
      1 N         142.2397  140.3754  158.8920 N.3     1  UNL1       -0.2684
      2 C         140.8007  140.7358  158.6704 C.3     1  UNL1        0.1035
      3 C         140.2748  142.0547  159.1538 C.3     1  UNL1        0.1470
      4 C         139.7489  143.3738  159.6372 C.3     1  UNL1        0.1035
      5 N         140.6621  144.3324  160.3422 N.3     1  UNL1       -0.2673
      6 C         142.1012  143.9720  160.5639 C.3     1  UNL1        0.1035
      7 C         142.6271  142.6530  160.0805 C.3     1  UNL1        0.1470
      8 C         143.1529  141.3340  159.5971 C.3     1  UNL1        0.1035
      9 O         141.1880  143.0133  159.8588 O.3     1  UNL1       -0.3530
     10 C         142.7657  139.0564  158.4086 C.3     1  UNL1        0.0761
     11 C         142.9721  137.9305  159.3780 C.3     1  UNL1        0.0646
     12 C         142.3480  137.9901  160.7407 C.3     1  UNL1        0.2068
     13 O         140.8786  137.7374  160.9044 O.3     1  UNL1       -0.4754
     14 C         138.9385  138.2713  164.9295 C.ar    1  UNL1        0.0686
     15 C         140.2194  137.4998  164.8107 C.ar    1  UNL1        0.0134
     16 C         140.8661  137.3219  163.4690 C.ar    1  UNL1        0.0376
     17 C         140.2319  137.9154  162.2461 C.ar    1  UNL1        0.1386
     18 C         138.9510  138.6869  162.3648 C.ar    1  UNL1        0.0376
     19 C         138.3043  138.8649  163.7066 C.ar    1  UNL1        0.0134
     20 N         137.6451  138.6273  167.6128 N.1     1  UNL1       -0.1908
     21 C         138.2918  138.4493  166.2711 C.1     1  UNL1        0.1004
     22 C         140.1362  145.6514  160.8256 C.3     1  UNL1        0.0913
     23 C         139.5534  145.7672  162.2030 C.3     1  UNL1        0.1084
     24 N         138.3692  144.9314  162.5890 N.3     1  UNL1       -0.1816
     25 H         137.9805  144.5544  161.7246 H       1  UNL1        0.1485
     26 S         138.5420  143.7738  163.5271 S.O2    1  UNL1        0.0451
     27 O         137.6815  142.9253  162.6386 O.2     1  UNL1       -0.1572
     28 O         139.4025  144.6223  164.4156 O.2     1  UNL1       -0.1572
     29 C         138.7148  142.6162  164.4653 C.3     1  UNL1        0.1952
     30 C         140.0332  141.9051  164.5441 C.ar    1  UNL1        0.0029
     31 C         140.5486  141.4253  165.8686 C.ar    1  UNL1       -0.0026
     32 C         141.8670  140.7142  165.9474 C.ar    1  UNL1        0.0036
     33 C         142.6700  140.4829  164.7017 C.ar    1  UNL1        0.0714
     34 C         142.1546  140.9627  163.3773 C.ar    1  UNL1        0.0036
     35 C         140.8363  141.6738  163.2985 C.ar    1  UNL1       -0.0026
     36 C         143.9884  139.7719  164.7805 C.3     1  UNL1        0.4186
     37 F         145.3068  139.0608  164.8594 F       1  UNL1       -0.1659
     38 F         143.3045  138.5679  165.3575 F       1  UNL1       -0.1659
     39 F         144.6722  140.9758  164.2036 F       1  UNL1       -0.1659
@<TRIPOS>BOND
     1    20    21    3
     2    21    14    1
     3    14    15   ar
     4    15    16   ar
     5    16    17   ar
     6    17    13    1
     7    13    12    1
     8    12    11    1
     9    11    10    1
    10    10     1    1
    11     1     2    1
    12     2     3    1
    13     3     4    1
    14     4     5    1
    15     5    22    1
    16    22    23    1
    17    23    24    1
    18    24    26    1
    19    26    27    2
    20    26    28    2
    21    26    29    1
    22    29    30    1
    23    30    31   ar
    24    31    32   ar
    25    32    33   ar
    26    33    36    1
    27    36    37    1
    28    36    38    1
    29    36    39    1
    30    33    34   ar
    31    34    35   ar
    32     5     6    1
    33     6     7    1
    34     7     8    1
    35     7     9    1
    36    17    18   ar
    37    18    19   ar
    38    19    14   ar
    39     8     1    1
    40     9     3    1
    41    35    30   ar
    42    24    25    1
@<TRIPOS>MOLECULE
*****
 39 42 0 0 0
SMALL
GASTEIGER

@<TRIPOS>ATOM
      1 N         139.0058  138.7689  162.2920 N.3     1  UNL1       -0.2684
      2 C         140.1652  138.7828  161.3405 C.3     1  UNL1        0.1035
      3 C         140.3516  139.9382  160.4023 C.3     1  UNL1        0.1470
      4 C         140.5380  141.0936  159.4640 C.3     1  UNL1        0.1035
      5 N         139.5650  142.2351  159.4774 N.3     1  UNL1       -0.2673
      6 C         138.4055  142.2212  160.4290 C.3     1  UNL1        0.1035
      7 C         138.2191  141.0658  161.3672 C.3     1  UNL1        0.1470
      8 C         138.0327  139.9104  162.3054 C.3     1  UNL1        0.1035
      9 O         139.3785  141.0797  160.4156 O.3     1  UNL1       -0.3530
     10 C         138.8193  137.6135  163.2303 C.3     1  UNL1        0.0761
     11 C         139.3629  137.6858  164.6265 C.3     1  UNL1        0.0646
     12 C         138.5495  138.3193  165.7161 C.3     1  UNL1        0.2068
     13 O         138.4633  139.8135  165.8156 O.3     1  UNL1       -0.4754
     14 C         141.1144  142.0332  168.6956 C.ar    1  UNL1        0.0686
     15 C         140.9453  142.5355  167.2924 C.ar    1  UNL1        0.0134
     16 C         140.0616  141.7956  166.3323 C.ar    1  UNL1        0.0376
     17 C         139.3470  140.5534  166.7756 C.ar    1  UNL1        0.1386
     18 C         139.5161  140.0512  168.1789 C.ar    1  UNL1        0.0376
     19 C         140.3998  140.7911  169.1389 C.ar    1  UNL1        0.0134
     20 N         142.8817  143.5130  170.6157 N.1     1  UNL1       -0.1908
     21 C         141.9980  142.7731  169.6557 C.1     1  UNL1        0.1004
     22 C         139.7513  143.3905  158.5391 C.3     1  UNL1        0.0913
     23 C         140.4393  144.6369  159.0116 C.3     1  UNL1        0.1084
     24 N         139.8322  145.4582  160.1102 N.3     1  UNL1       -0.1816
     25 H         138.8496  145.1910  160.1690 H       1  UNL1        0.1485
     26 S         140.3871  145.3771  161.5014 S.O2    1  UNL1        0.0451
     27 O         141.7696  145.2207  160.9410 O.2     1  UNL1       -0.1572
     28 O         139.0046  145.5336  162.0619 O.2     1  UNL1       -0.1572
     29 C         140.9419  145.2960  162.8927 C.3     1  UNL1        0.1952
     30 C         141.7211  144.0877  163.3202 C.ar    1  UNL1        0.0029
     31 C         142.9602  144.2493  164.1500 C.ar    1  UNL1       -0.0026
     32 C         143.7394  143.0409  164.5775 C.ar    1  UNL1        0.0036
     33 C         143.2796  141.6710  164.1750 C.ar    1  UNL1        0.0714
     34 C         142.0405  141.5094  163.3452 C.ar    1  UNL1        0.0036
     35 C         141.2613  142.7178  162.9178 C.ar    1  UNL1       -0.0026
     36 C         144.0588  140.4626  164.6024 C.3     1  UNL1        0.4186
     37 F         144.8380  139.2543  165.0299 F       1  UNL1       -0.1659
     38 F         143.0415  140.1838  165.6689 F       1  UNL1       -0.1659
     39 F         145.0761  140.7414  163.5360 F       1  UNL1       -0.1659
@<TRIPOS>BOND
     1    20    21    3
     2    21    14    1
     3    14    15   ar
     4    15    16   ar
     5    16    17   ar
     6    17    13    1
     7    13    12    1
     8    12    11    1
     9    11    10    1
    10    10     1    1
    11     1     2    1
    12     2     3    1
    13     3     4    1
    14     4     5    1
    15     5    22    1
    16    22    23    1
    17    23    24    1
    18    24    26    1
    19    26    27    2
    20    26    28    2
    21    26    29    1
    22    29    30    1
    23    30    31   ar
    24    31    32   ar
    25    32    33   ar
    26    33    36    1
    27    36    37    1
    28    36    38    1
    29    36    39    1
    30    33    34   ar
    31    34    35   ar
    32     5     6    1
    33     6     7    1
    34     7     8    1
    35     7     9    1
    36    17    18   ar
    37    18    19   ar
    38    19    14   ar
    39     8     1    1
    40     9     3    1
    41    35    30   ar
    42    24    25    1
@<TRIPOS>MOLECULE
*****
 39 42 0 0 0
SMALL
GASTEIGER

@<TRIPOS>ATOM
      1 N         138.9819  138.8008  162.3450 N.3     1  UNL1       -0.2684
      2 C         137.9843  139.9206  162.3691 C.3     1  UNL1        0.1035
      3 C         138.1446  141.0879  161.4408 C.3     1  UNL1        0.1470
      4 C         138.3049  142.2552  160.5124 C.3     1  UNL1        0.1035
      5 N         139.4628  142.3026  159.5601 N.3     1  UNL1       -0.2673
      6 C         140.4604  141.1826  159.5360 C.3     1  UNL1        0.1035
      7 C         140.3001  140.0154  160.4644 C.3     1  UNL1        0.1470
      8 C         140.1398  138.8481  161.3927 C.3     1  UNL1        0.1035
      9 O         139.3025  141.1352  160.4884 O.3     1  UNL1       -0.3530
     10 C         138.8216  137.6334  163.2734 C.3     1  UNL1        0.0761
     11 C         139.3981  137.6909  164.6570 C.3     1  UNL1        0.0646
     12 C         138.6201  138.3324  165.7676 C.3     1  UNL1        0.2068
     13 O         138.5375  139.8273  165.8592 O.3     1  UNL1       -0.4754
     14 C         141.1734  142.0535  168.7481 C.ar    1  UNL1        0.0686
     15 C         141.1324  142.4592  167.3046 C.ar    1  UNL1        0.0134
     16 C         140.2538  141.7172  166.3416 C.ar    1  UNL1        0.0376
     17 C         139.4161  140.5693  166.8222 C.ar    1  UNL1        0.1386
     18 C         139.4570  140.1636  168.2657 C.ar    1  UNL1        0.0376
     19 C         140.3357  140.9058  169.2287 C.ar    1  UNL1        0.0134
     20 N         142.9306  143.5376  170.6742 N.1     1  UNL1       -0.1908
     21 C         142.0520  142.7956  169.7111 C.1     1  UNL1        0.1004
     22 C         139.6231  143.4698  158.6318 C.3     1  UNL1        0.0913
     23 C         140.4040  144.6738  159.0685 C.3     1  UNL1        0.1084
     24 N         139.8727  145.5577  160.1577 N.3     1  UNL1       -0.1816
     25 H         138.8651  145.4038  160.1966 H       1  UNL1        0.1485
     26 S         140.3872  145.4126  161.5592 S.O2    1  UNL1        0.0451
     27 O         138.9905  145.5565  162.0869 O.2     1  UNL1       -0.1572
     28 O         141.7839  145.2687  161.0316 O.2     1  UNL1       -0.1572
     29 C         140.9017  145.2675  162.9608 C.3     1  UNL1        0.1952
     30 C         141.7609  144.0936  163.3265 C.ar    1  UNL1        0.0029
     31 C         141.3387  142.7065  162.9419 C.ar    1  UNL1       -0.0026
     32 C         142.1979  141.5326  163.3077 C.ar    1  UNL1        0.0036
     33 C         143.4792  141.7458  164.0579 C.ar    1  UNL1        0.0714
     34 C         143.9013  143.1328  164.4425 C.ar    1  UNL1        0.0036
     35 C         143.0422  144.3067  164.0767 C.ar    1  UNL1       -0.0026
     36 C         144.3384  140.5719  164.4237 C.3     1  UNL1        0.4186
     37 F         145.1976  139.3979  164.7894 F       1  UNL1       -0.1659
     38 F         143.3276  140.1516  165.4492 F       1  UNL1       -0.1659
     39 F         145.3492  140.9922  163.3982 F       1  UNL1       -0.1659
@<TRIPOS>BOND
     1    20    21    3
     2    21    14    1
     3    14    15   ar
     4    15    16   ar
     5    16    17   ar
     6    17    13    1
     7    13    12    1
     8    12    11    1
     9    11    10    1
    10    10     1    1
    11     1     2    1
    12     2     3    1
    13     3     4    1
    14     4     5    1
    15     5    22    1
    16    22    23    1
    17    23    24    1
    18    24    26    1
    19    26    27    2
    20    26    28    2
    21    26    29    1
    22    29    30    1
    23    30    31   ar
    24    31    32   ar
    25    32    33   ar
    26    33    36    1
    27    36    37    1
    28    36    38    1
    29    36    39    1
    30    33    34   ar
    31    34    35   ar
    32     5     6    1
    33     6     7    1
    34     7     8    1
    35     7     9    1
    36    17    18   ar
    37    18    19   ar
    38    19    14   ar
    39     8     1    1
    40     9     3    1
    41    35    30   ar
    42    24    25    1
@<TRIPOS>MOLECULE
*****
 39 42 0 0 0
SMALL
GASTEIGER

@<TRIPOS>ATOM
      1 N         143.5525  143.9498  161.9761 N.3     1  UNL1       -0.2684
      2 C         144.4842  142.9578  161.3454 C.3     1  UNL1        0.1035
      3 C         143.9584  141.9565  160.3601 C.3     1  UNL1        0.1470
      4 C         143.4326  140.9551  159.3748 C.3     1  UNL1        0.1035
      5 N         141.9752  140.9458  159.0201 N.3     1  UNL1       -0.2673
      6 C         141.0435  141.9380  159.6508 C.3     1  UNL1        0.1035
      7 C         141.5693  142.9393  160.6361 C.3     1  UNL1        0.1470
      8 C         142.0951  143.9406  161.6214 C.3     1  UNL1        0.1035
      9 O         142.5010  141.9472  160.0055 O.3     1  UNL1       -0.3530
     10 C         144.0783  144.9512  162.9614 C.3     1  UNL1        0.0761
     11 C         143.7077  144.8431  164.4109 C.3     1  UNL1        0.0646
     12 C         144.4513  143.8971  165.3066 C.3     1  UNL1        0.2068
     13 O         143.8121  142.6088  165.7328 O.3     1  UNL1       -0.4754
     14 C         142.9714  139.4004  162.6915 C.ar    1  UNL1        0.0686
     15 C         144.3583  139.5724  163.2364 C.ar    1  UNL1        0.0134
     16 C         144.6385  140.6419  164.2501 C.ar    1  UNL1        0.0376
     17 C         143.5318  141.5394  164.7190 C.ar    1  UNL1        0.1386
     18 C         142.1449  141.3673  164.1742 C.ar    1  UNL1        0.0376
     19 C         141.8647  140.2978  163.1604 C.ar    1  UNL1        0.0134
     20 N         142.4109  137.2614  160.6641 N.1     1  UNL1       -0.1908
     21 C         142.6912  138.3309  161.6778 C.1     1  UNL1        0.1004
     22 C         141.4494  139.9445  158.0348 C.3     1  UNL1        0.0913
     23 C         140.0712  139.3773  158.2049 C.3     1  UNL1        0.1084
     24 N         139.7371  138.5716  159.4253 N.3     1  UNL1       -0.1816
     25 H         140.5945  138.4971  159.9727 H       1  UNL1        0.1485
     26 S         138.6641  139.0404  160.3628 S.O2    1  UNL1        0.0451
     27 O         138.0257  139.8122  159.2462 O.2     1  UNL1       -0.1572
     28 O         139.3026  138.2687  161.4793 O.2     1  UNL1       -0.1572
     29 C         137.5911  139.5092  161.3004 C.3     1  UNL1        0.1952
     30 C         137.8408  140.6844  162.1984 C.ar    1  UNL1        0.0029
     31 C         138.0010  142.0558  161.6119 C.ar    1  UNL1       -0.0026
     32 C         138.2506  143.2310  162.5099 C.ar    1  UNL1        0.0036
     33 C         138.3401  143.0349  163.9944 C.ar    1  UNL1        0.0714
     34 C         138.1799  141.6637  164.5808 C.ar    1  UNL1        0.0036
     35 C         137.9303  140.4884  163.6828 C.ar    1  UNL1       -0.0026
     36 C         138.5898  144.2102  164.8924 C.3     1  UNL1        0.4186
     37 F         138.8395  145.3855  165.7905 F       1  UNL1       -0.1659
     38 F         137.1126  144.3619  165.1046 F       1  UNL1       -0.1659
     39 F         140.0669  144.0585  164.6803 F       1  UNL1       -0.1659
@<TRIPOS>BOND
     1    20    21    3
     2    21    14    1
     3    14    15   ar
     4    15    16   ar
     5    16    17   ar
     6    17    13    1
     7    13    12    1
     8    12    11    1
     9    11    10    1
    10    10     1    1
    11     1     2    1
    12     2     3    1
    13     3     4    1
    14     4     5    1
    15     5    22    1
    16    22    23    1
    17    23    24    1
    18    24    26    1
    19    26    27    2
    20    26    28    2
    21    26    29    1
    22    29    30    1
    23    30    31   ar
    24    31    32   ar
    25    32    33   ar
    26    33    36    1
    27    36    37    1
    28    36    38    1
    29    36    39    1
    30    33    34   ar
    31    34    35   ar
    32     5     6    1
    33     6     7    1
    34     7     8    1
    35     7     9    1
    36    17    18   ar
    37    18    19   ar
    38    19    14   ar
    39     8     1    1
    40     9     3    1
    41    35    30   ar
    42    24    25    1
@<TRIPOS>MOLECULE
*****
 39 42 0 0 0
SMALL
GASTEIGER

@<TRIPOS>ATOM
      1 N         138.5473  139.2753  165.6589 N.3     1  UNL1       -0.2684
      2 C         138.8990  138.1341  164.7513 C.3     1  UNL1        0.1035
      3 C         138.7792  138.2937  163.2647 C.3     1  UNL1        0.1470
      4 C         138.6593  138.4534  161.7780 C.3     1  UNL1        0.1035
      5 N         138.1876  139.7542  161.1990 N.3     1  UNL1       -0.2673
      6 C         137.8358  140.8955  162.1067 C.3     1  UNL1        0.1035
      7 C         137.9557  140.7359  163.5933 C.3     1  UNL1        0.1470
      8 C         138.0756  140.5762  165.0799 C.3     1  UNL1        0.1035
      9 O         138.3075  139.5946  162.6857 O.3     1  UNL1       -0.3530
     10 C         138.6671  139.1157  167.1457 C.3     1  UNL1        0.0761
     11 C         139.4392  140.1207  167.9480 C.3     1  UNL1        0.0646
     12 C         140.9389  140.1086  167.9223 C.3     1  UNL1        0.2068
     13 O         141.6818  141.0729  167.0459 O.3     1  UNL1       -0.4754
     14 C         143.1896  139.7498  163.0177 C.ar    1  UNL1        0.0686
     15 C         143.8929  139.3038  164.2653 C.ar    1  UNL1        0.0134
     16 C         143.3904  139.7449  165.6080 C.ar    1  UNL1        0.0376
     17 C         142.1844  140.6319  165.7032 C.ar    1  UNL1        0.1386
     18 C         141.4811  141.0778  164.4556 C.ar    1  UNL1        0.0376
     19 C         141.9837  140.6368  163.1128 C.ar    1  UNL1        0.0134
     20 N         144.1947  138.8677  160.3322 N.1     1  UNL1       -0.1908
     21 C         143.6922  139.3088  161.6750 C.1     1  UNL1        0.1004
     22 C         138.0677  139.9139  159.7124 C.3     1  UNL1        0.0913
     23 C         138.9107  140.9273  158.9964 C.3     1  UNL1        0.1084
     24 N         138.9325  142.3515  159.4666 N.3     1  UNL1       -0.1816
     25 H         138.5225  142.3596  160.4006 H       1  UNL1        0.1485
     26 S         140.2342  143.0910  159.5588 S.O2    1  UNL1        0.0451
     27 O         140.9788  141.8080  159.3370 O.2     1  UNL1       -0.1572
     28 O         139.4896  144.3741  159.7806 O.2     1  UNL1       -0.1572
     29 C         141.5360  143.8306  159.6510 C.3     1  UNL1        0.1952
     30 C         142.2756  143.8874  160.9547 C.ar    1  UNL1        0.0029
     31 C         143.6110  143.2174  161.0892 C.ar    1  UNL1       -0.0026
     32 C         144.3506  143.2741  162.3929 C.ar    1  UNL1        0.0036
     33 C         143.7549  144.0008  163.5622 C.ar    1  UNL1        0.0714
     34 C         142.4196  144.6707  163.4277 C.ar    1  UNL1        0.0036
     35 C         141.6800  144.6140  162.1239 C.ar    1  UNL1       -0.0026
     36 C         144.4945  144.0576  164.8659 C.3     1  UNL1        0.4186
     37 F         145.2342  144.1143  166.1697 F       1  UNL1       -0.1659
     38 F         144.7539  142.5825  164.7830 F       1  UNL1       -0.1659
     39 F         144.2352  145.5326  164.9489 F       1  UNL1       -0.1659
@<TRIPOS>BOND
     1    20    21    3
     2    21    14    1
     3    14    15   ar
     4    15    16   ar
     5    16    17   ar
     6    17    13    1
     7    13    12    1
     8    12    11    1
     9    11    10    1
    10    10     1    1
    11     1     2    1
    12     2     3    1
    13     3     4    1
    14     4     5    1
    15     5    22    1
    16    22    23    1
    17    23    24    1
    18    24    26    1
    19    26    27    2
    20    26    28    2
    21    26    29    1
    22    29    30    1
    23    30    31   ar
    24    31    32   ar
    25    32    33   ar
    26    33    36    1
    27    36    37    1
    28    36    38    1
    29    36    39    1
    30    33    34   ar
    31    34    35   ar
    32     5     6    1
    33     6     7    1
    34     7     8    1
    35     7     9    1
    36    17    18   ar
    37    18    19   ar
    38    19    14   ar
    39     8     1    1
    40     9     3    1
    41    35    30   ar
    42    24    25    1
@<TRIPOS>MOLECULE
*****
 39 42 0 0 0
SMALL
GASTEIGER

@<TRIPOS>ATOM
      1 N         144.0080  142.5803  164.5274 N.3     1  UNL1       -0.2684
      2 C         143.1078  142.0467  165.6020 C.3     1  UNL1        0.1035
      3 C         141.7284  142.6105  165.7732 C.3     1  UNL1        0.1470
      4 C         140.3489  143.1743  165.9445 C.3     1  UNL1        0.1035
      5 N         139.8698  144.2718  165.0411 N.3     1  UNL1       -0.2673
      6 C         140.7701  144.8054  163.9665 C.3     1  UNL1        0.1035
      7 C         142.1495  144.2415  163.7952 C.3     1  UNL1        0.1470
      8 C         143.5288  143.6777  163.6240 C.3     1  UNL1        0.1035
      9 O         141.2492  143.7079  164.8698 O.3     1  UNL1       -0.3530
     10 C         145.3875  142.0165  164.3561 C.3     1  UNL1        0.0761
     11 C         145.5676  140.5732  163.9895 C.3     1  UNL1        0.0646
     12 C         144.7478  139.9715  162.8867 C.3     1  UNL1        0.2068
     13 O         144.5607  140.7172  161.5988 O.3     1  UNL1       -0.4754
     14 C         140.8274  140.0998  159.1634 C.ar    1  UNL1        0.0686
     15 C         141.3879  141.4798  159.3401 C.ar    1  UNL1        0.0134
     16 C         142.6323  141.6857  160.1519 C.ar    1  UNL1        0.0376
     17 C         143.3163  140.5114  160.7870 C.ar    1  UNL1        0.1386
     18 C         142.7558  139.1313  160.6103 C.ar    1  UNL1        0.0376
     19 C         141.5113  138.9255  159.7985 C.ar    1  UNL1        0.0134
     20 N         138.3385  139.6880  157.5398 N.1     1  UNL1       -0.1908
     21 C         139.5830  139.8939  158.3516 C.1     1  UNL1        0.1004
     22 C         138.4904  144.8356  165.2123 C.3     1  UNL1        0.0913
     23 C         137.3722  144.3631  164.3310 C.3     1  UNL1        0.1084
     24 N         137.5194  144.4161  162.8393 N.3     1  UNL1       -0.1816
     25 H         138.2434  145.1062  162.6392 H       1  UNL1        0.1485
     26 S         137.8808  143.1760  162.0768 S.O2    1  UNL1        0.0451
     27 O         138.7562  143.9888  161.1696 O.2     1  UNL1       -0.1572
     28 O         137.0054  142.3631  162.9839 O.2     1  UNL1       -0.1572
     29 C         138.2421  141.9357  161.3143 C.3     1  UNL1        0.1952
     30 C         138.8803  140.7784  162.0237 C.ar    1  UNL1        0.0029
     31 C         140.1030  140.9963  162.8650 C.ar    1  UNL1       -0.0026
     32 C         140.7412  139.8390  163.5744 C.ar    1  UNL1        0.0036
     33 C         140.1568  138.4638  163.4425 C.ar    1  UNL1        0.0714
     34 C         138.9342  138.2459  162.6013 C.ar    1  UNL1        0.0036
     35 C         138.2960  139.4033  161.8918 C.ar    1  UNL1       -0.0026
     36 C         140.7951  137.3065  164.1520 C.3     1  UNL1        0.4186
     37 F         141.4333  136.1492  164.8614 F       1  UNL1       -0.1659
     38 F         141.9442  137.3498  163.1888 F       1  UNL1       -0.1659
     39 F         139.6459  137.2632  165.1151 F       1  UNL1       -0.1659
@<TRIPOS>BOND
     1    20    21    3
     2    21    14    1
     3    14    15   ar
     4    15    16   ar
     5    16    17   ar
     6    17    13    1
     7    13    12    1
     8    12    11    1
     9    11    10    1
    10    10     1    1
    11     1     2    1
    12     2     3    1
    13     3     4    1
    14     4     5    1
    15     5    22    1
    16    22    23    1
    17    23    24    1
    18    24    26    1
    19    26    27    2
    20    26    28    2
    21    26    29    1
    22    29    30    1
    23    30    31   ar
    24    31    32   ar
    25    32    33   ar
    26    33    36    1
    27    36    37    1
    28    36    38    1
    29    36    39    1
    30    33    34   ar
    31    34    35   ar
    32     5     6    1
    33     6     7    1
    34     7     8    1
    35     7     9    1
    36    17    18   ar
    37    18    19   ar
    38    19    14   ar
    39     8     1    1
    40     9     3    1
    41    35    30   ar
    42    24    25    1
