@<TRIPOS>MOLECULE
*****
 33 36 0 0 0
SMALL
GASTEIGER

@<TRIPOS>ATOM
      1 C         138.5844  139.6566  165.0244 C.ar    1  UNL1        0.1610
      2 C         138.0454  140.9702  164.5405 C.ar    1  UNL1        0.0754
      3 C         137.7578  141.1713  163.0822 C.ar    1  UNL1        0.1445
      4 C         138.0092  140.0590  162.1077 C.ar    1  UNL1        0.0676
      5 C         138.5482  138.7455  162.5916 C.ar    1  UNL1        0.1566
      6 F         138.7995  137.6332  161.6171 F       1  UNL1       -0.2031
      7 C         138.8358  138.5443  164.0499 C.ar    1  UNL1        0.1196
      8 CL        139.3748  137.2308  164.5339 Cl      1  UNL1       -0.0767
      9 O         138.8721  139.4554  166.4828 O.3     1  UNL1       -0.4524
     10 C         140.7779  141.4961  169.3028 C.ar    1  UNL1        0.0723
     11 C         141.9673  141.9950  168.5369 C.ar    1  UNL1        0.0219
     12 C         142.1250  141.6474  167.0864 C.ar    1  UNL1        0.0614
     13 CL        143.3143  142.1462  166.3205 Cl      1  UNL1       -0.0821
     14 C         141.0932  140.8008  166.4016 C.ar    1  UNL1        0.0489
     15 C         139.9039  140.3020  167.1675 C.ar    1  UNL1        0.1469
     16 C         139.7462  140.6496  168.6181 C.ar    1  UNL1        0.0478
     17 N         140.4627  142.1915  172.2041 N.1     1  UNL1       -0.1908
     18 C         140.6203  141.8438  170.7535 C.1     1  UNL1        0.1005
     19 O         137.2188  142.4848  162.5983 O.3     1  UNL1       -0.4687
     20 C         137.6940  143.7651  163.2193 C.3     1  UNL1        0.2527
     21 C         138.8418  144.5137  162.6093 C.ar    1  UNL1        0.1271
     22 N         138.7572  145.8342  161.9029 N.ar    1  UNL1       -0.1472
     23 N         140.1389  146.2099  161.4557 N.ar    1  UNL1       -0.1305
     24 C         141.0773  145.1216  161.8858 C.ar    1  UNL1        0.1641
     25 N         142.5582  144.9497  161.7203 N.ar    1  UNL1       -0.3262
     26 C         143.2374  143.7296  162.2678 C.ar    1  UNL1        0.1037
     27 N         144.7183  143.5577  162.1023 N.pl3   1  UNL1       -0.3441
     28 C         142.4357  142.6813  162.9808 C.ar    1  UNL1        0.0321
     29 C         140.9548  142.8531  163.1463 C.ar    1  UNL1        0.0072
     30 C         140.2756  144.0733  162.5988 C.ar    1  UNL1        0.0547
     31 H         143.0843  145.6378  161.2523 H       1  UNL1        0.1686
     32 H         145.2445  144.2457  161.6344 H       1  UNL1        0.1437
     33 H         145.1641  142.7568  162.4617 H       1  UNL1        0.1437
@<TRIPOS>BOND
     1    17    18    3
     2    18    10    1
     3    10    11   ar
     4    11    12   ar
     5    12    13    1
     6    12    14   ar
     7    14    15   ar
     8    15     9    1
     9     9     1    1
    10     1     2   ar
    11     2     3   ar
    12     3    19    1
    13    19    20    1
    14    20    21    1
    15    21    22   ar
    16    22    23   ar
    17    23    24   ar
    18    24    25   ar
    19    25    26   ar
    20    26    27    1
    21    26    28   ar
    22    28    29   ar
    23    29    30   ar
    24     3     4   ar
    25     4     5   ar
    26     5     6    1
    27     5     7   ar
    28     7     8    1
    29    15    16   ar
    30    16    10   ar
    31     7     1   ar
    32    30    21   ar
    33    30    24    1
    34    25    31    1
    35    27    32    1
    36    27    33    1
@<TRIPOS>MOLECULE
*****
 33 36 0 0 0
SMALL
GASTEIGER

@<TRIPOS>ATOM
      1 C         143.5861  143.4842  164.2759 C.ar    1  UNL1        0.1610
      2 C         142.3597  144.2972  163.9847 C.ar    1  UNL1        0.0754
      3 C         141.9555  144.5624  162.5647 C.ar    1  UNL1        0.1445
      4 C         142.7777  144.0146  161.4361 C.ar    1  UNL1        0.0676
      5 C         144.0041  143.2015  161.7273 C.ar    1  UNL1        0.1566
      6 F         144.8263  142.6537  160.5986 F       1  UNL1       -0.2031
      7 C         144.4083  142.9364  163.1472 C.ar    1  UNL1        0.1196
      8 CL        145.6347  142.1233  163.4386 Cl      1  UNL1       -0.0767
      9 O         143.9904  143.2190  165.6959 O.3     1  UNL1       -0.4524
     10 C         142.4581  141.0169  168.6204 C.ar    1  UNL1        0.0723
     11 C         142.2507  139.7107  167.9128 C.ar    1  UNL1        0.0219
     12 C         142.6232  139.5738  166.4663 C.ar    1  UNL1        0.0614
     13 CL        142.4157  138.2676  165.7587 Cl      1  UNL1       -0.0821
     14 C         143.2031  140.7433  165.7273 C.ar    1  UNL1        0.0489
     15 C         143.4105  142.0495  166.4349 C.ar    1  UNL1        0.1469
     16 C         143.0380  142.1864  167.8814 C.ar    1  UNL1        0.0478
     17 N         141.7131  141.2905  171.5136 N.1     1  UNL1       -0.1908
     18 C         142.0856  141.1537  170.0670 C.1     1  UNL1        0.1005
     19 O         140.7290  145.3754  162.2735 O.3     1  UNL1       -0.4687
     20 C         139.4753  145.1519  163.0662 C.3     1  UNL1        0.2527
     21 C         138.7739  143.8275  163.0027 C.ar    1  UNL1        0.1271
     22 N         137.8628  143.3640  161.9049 N.ar    1  UNL1       -0.1472
     23 N         137.3864  141.9841  162.2496 N.ar    1  UNL1       -0.1305
     24 C         138.0030  141.5947  163.5604 C.ar    1  UNL1        0.1641
     25 N         137.8944  140.3500  164.3902 N.ar    1  UNL1       -0.3262
     26 C         138.6434  140.2445  165.6855 C.ar    1  UNL1        0.1037
     27 N         138.5349  138.9997  166.5155 N.pl3   1  UNL1       -0.3441
     28 C         139.5010  141.3838  166.1510 C.ar    1  UNL1        0.0321
     29 C         139.6096  142.6285  165.3211 C.ar    1  UNL1        0.0072
     30 C         138.8606  142.7340  164.0258 C.ar    1  UNL1        0.0547
     31 H         137.3316  139.6022  164.0848 H       1  UNL1        0.1686
     32 H         137.9720  138.2519  166.2100 H       1  UNL1        0.1437
     33 H         139.0265  138.9304  167.3657 H       1  UNL1        0.1437
@<TRIPOS>BOND
     1    17    18    3
     2    18    10    1
     3    10    11   ar
     4    11    12   ar
     5    12    13    1
     6    12    14   ar
     7    14    15   ar
     8    15     9    1
     9     9     1    1
    10     1     2   ar
    11     2     3   ar
    12     3    19    1
    13    19    20    1
    14    20    21    1
    15    21    22   ar
    16    22    23   ar
    17    23    24   ar
    18    24    25   ar
    19    25    26   ar
    20    26    27    1
    21    26    28   ar
    22    28    29   ar
    23    29    30   ar
    24     3     4   ar
    25     4     5   ar
    26     5     6    1
    27     5     7   ar
    28     7     8    1
    29    15    16   ar
    30    16    10   ar
    31     7     1   ar
    32    30    21   ar
    33    30    24    1
    34    25    31    1
    35    27    32    1
    36    27    33    1
@<TRIPOS>MOLECULE
*****
 33 36 0 0 0
SMALL
GASTEIGER

@<TRIPOS>ATOM
      1 C         139.3981  139.5651  165.2525 C.ar    1  UNL1        0.1610
      2 C         138.4760  140.6748  164.8424 C.ar    1  UNL1        0.0754
      3 C         137.8410  140.6586  163.4835 C.ar    1  UNL1        0.1445
      4 C         138.1281  139.5327  162.5348 C.ar    1  UNL1        0.0676
      5 C         139.0502  138.4230  162.9449 C.ar    1  UNL1        0.1566
      6 F         139.3373  137.2972  161.9962 F       1  UNL1       -0.2031
      7 C         139.6852  138.4392  164.3038 C.ar    1  UNL1        0.1196
      8 CL        140.6074  137.3295  164.7140 Cl      1  UNL1       -0.0767
      9 O         140.0332  139.5812  166.6114 O.3     1  UNL1       -0.4524
     10 C         143.2345  141.8824  166.1573 C.ar    1  UNL1        0.0723
     11 C         143.3318  142.5045  167.5187 C.ar    1  UNL1        0.0219
     12 C         142.3297  142.1522  168.5777 C.ar    1  UNL1        0.0614
     13 CL        142.4270  142.7743  169.9391 Cl      1  UNL1       -0.0821
     14 C         141.2301  141.1778  168.2753 C.ar    1  UNL1        0.0489
     15 C         141.1328  140.5556  166.9138 C.ar    1  UNL1        0.1469
     16 C         142.1349  140.9079  165.8548 C.ar    1  UNL1        0.0478
     17 N         145.2389  142.5870  164.0393 N.1     1  UNL1       -0.1908
     18 C         144.2367  142.2347  165.0982 C.1     1  UNL1        0.1005
     19 O         136.9188  141.7683  163.0734 O.3     1  UNL1       -0.4687
     20 C         137.4336  143.1740  162.9763 C.3     1  UNL1        0.2527
     21 C         138.5850  143.4899  162.0683 C.ar    1  UNL1        0.1271
     22 N         138.5853  143.3763  160.5726 N.ar    1  UNL1       -0.1472
     23 N         139.9387  143.7912  160.0766 N.ar    1  UNL1       -0.1305
     24 C         140.7749  144.1612  161.2656 C.ar    1  UNL1        0.1641
     25 N         142.1900  144.6435  161.3865 N.ar    1  UNL1       -0.3262
     26 C         142.7685  144.9397  162.7384 C.ar    1  UNL1        0.1037
     27 N         144.1837  145.4221  162.8593 N.pl3   1  UNL1       -0.3441
     28 C         141.9318  144.7535  163.9694 C.ar    1  UNL1        0.0321
     29 C         140.5167  144.2711  163.8485 C.ar    1  UNL1        0.0072
     30 C         139.9382  143.9750  162.4966 C.ar    1  UNL1        0.0547
     31 H         142.7392  144.7657  160.5786 H       1  UNL1        0.1686
     32 H         144.7329  145.5443  162.0514 H       1  UNL1        0.1437
     33 H         144.5634  145.6165  163.7466 H       1  UNL1        0.1437
@<TRIPOS>BOND
     1    17    18    3
     2    18    10    1
     3    10    11   ar
     4    11    12   ar
     5    12    13    1
     6    12    14   ar
     7    14    15   ar
     8    15     9    1
     9     9     1    1
    10     1     2   ar
    11     2     3   ar
    12     3    19    1
    13    19    20    1
    14    20    21    1
    15    21    22   ar
    16    22    23   ar
    17    23    24   ar
    18    24    25   ar
    19    25    26   ar
    20    26    27    1
    21    26    28   ar
    22    28    29   ar
    23    29    30   ar
    24     3     4   ar
    25     4     5   ar
    26     5     6    1
    27     5     7   ar
    28     7     8    1
    29    15    16   ar
    30    16    10   ar
    31     7     1   ar
    32    30    21   ar
    33    30    24    1
    34    25    31    1
    35    27    32    1
    36    27    33    1
@<TRIPOS>MOLECULE
*****
 33 36 0 0 0
SMALL
GASTEIGER

@<TRIPOS>ATOM
      1 C         138.1381  140.4417  164.2564 C.ar    1  UNL1        0.1610
      2 C         137.9439  141.9257  164.1556 C.ar    1  UNL1        0.0754
      3 C         137.8912  142.5854  162.8095 C.ar    1  UNL1        0.1445
      4 C         138.0326  141.7612  161.5643 C.ar    1  UNL1        0.0676
      5 C         138.2267  140.2773  161.6650 C.ar    1  UNL1        0.1566
      6 F         138.3681  139.4531  160.4197 F       1  UNL1       -0.2031
      7 C         138.2795  139.6175  163.0111 C.ar    1  UNL1        0.1196
      8 CL        138.4736  138.1335  163.1119 Cl      1  UNL1       -0.0767
      9 O         138.1908  139.7819  165.6025 O.3     1  UNL1       -0.4524
     10 C         140.6811  140.1810  168.6666 C.ar    1  UNL1        0.0723
     11 C         141.9933  139.8760  168.0070 C.ar    1  UNL1        0.0219
     12 C         142.0381  139.5397  166.5459 C.ar    1  UNL1        0.0614
     13 CL        143.3503  139.2347  165.8863 Cl      1  UNL1       -0.0821
     14 C         140.7705  139.5083  165.7444 C.ar    1  UNL1        0.0489
     15 C         139.4583  139.8132  166.4040 C.ar    1  UNL1        0.1469
     16 C         139.4136  140.1496  167.8651 C.ar    1  UNL1        0.0478
     17 N         140.5917  140.8537  171.5889 N.1     1  UNL1       -0.1908
     18 C         140.6364  140.5174  170.1278 C.1     1  UNL1        0.1005
     19 O         137.6971  144.0694  162.7088 O.3     1  UNL1       -0.4687
     20 C         138.8363  144.9971  163.0119 C.3     1  UNL1        0.2527
     21 C         140.1868  144.7487  162.4083 C.ar    1  UNL1        0.1271
     22 N         140.6241  145.1499  161.0307 N.ar    1  UNL1       -0.1472
     23 N         142.0447  144.7045  160.8473 N.ar    1  UNL1       -0.1305
     24 C         142.4853  144.0282  162.1116 C.ar    1  UNL1        0.1641
     25 N         143.7838  143.3910  162.5089 N.ar    1  UNL1       -0.3262
     26 C         143.9340  142.7811  163.8710 C.ar    1  UNL1        0.1037
     27 N         145.2325  142.1438  164.2685 N.pl3   1  UNL1       -0.3441
     28 C         142.7857  142.8083  164.8358 C.ar    1  UNL1        0.0321
     29 C         141.4872  143.4455  164.4384 C.ar    1  UNL1        0.0072
     30 C         141.3371  144.0554  163.0763 C.ar    1  UNL1        0.0547
     31 H         144.5374  143.3731  161.8757 H       1  UNL1        0.1686
     32 H         145.9862  142.1259  163.6353 H       1  UNL1        0.1437
     33 H         145.3311  141.7435  165.1625 H       1  UNL1        0.1437
@<TRIPOS>BOND
     1    17    18    3
     2    18    10    1
     3    10    11   ar
     4    11    12   ar
     5    12    13    1
     6    12    14   ar
     7    14    15   ar
     8    15     9    1
     9     9     1    1
    10     1     2   ar
    11     2     3   ar
    12     3    19    1
    13    19    20    1
    14    20    21    1
    15    21    22   ar
    16    22    23   ar
    17    23    24   ar
    18    24    25   ar
    19    25    26   ar
    20    26    27    1
    21    26    28   ar
    22    28    29   ar
    23    29    30   ar
    24     3     4   ar
    25     4     5   ar
    26     5     6    1
    27     5     7   ar
    28     7     8    1
    29    15    16   ar
    30    16    10   ar
    31     7     1   ar
    32    30    21   ar
    33    30    24    1
    34    25    31    1
    35    27    32    1
    36    27    33    1
@<TRIPOS>MOLECULE
*****
 33 36 0 0 0
SMALL
GASTEIGER

@<TRIPOS>ATOM
      1 C         142.0768  142.7983  165.2997 C.ar    1  UNL1        0.1610
      2 C         140.7014  143.3912  165.2178 C.ar    1  UNL1        0.0754
      3 C         140.4470  144.5759  164.3337 C.ar    1  UNL1        0.1445
      4 C         141.5678  145.1677  163.5316 C.ar    1  UNL1        0.0676
      5 C         142.9432  144.5747  163.6135 C.ar    1  UNL1        0.1566
      6 F         144.0641  145.1665  162.8113 F       1  UNL1       -0.2031
      7 C         143.1977  143.3900  164.4976 C.ar    1  UNL1        0.1196
      8 CL        144.5731  142.7970  164.5795 Cl      1  UNL1       -0.0767
      9 O         142.3314  141.6135  166.1839 O.3     1  UNL1       -0.4524
     10 C         139.2361  139.8780  167.9607 C.ar    1  UNL1        0.0723
     11 C         139.3290  140.4715  169.3352 C.ar    1  UNL1        0.0219
     12 C         140.4226  141.4456  169.6593 C.ar    1  UNL1        0.0614
     13 CL        140.5154  142.0390  171.0338 Cl      1  UNL1       -0.0821
     14 C         141.4234  141.8262  168.6088 C.ar    1  UNL1        0.0489
     15 C         141.3305  141.2328  167.2344 C.ar    1  UNL1        0.1469
     16 C         140.2369  140.2587  166.9103 C.ar    1  UNL1        0.0478
     17 N         137.0487  137.9297  167.3127 N.1     1  UNL1       -0.1908
     18 C         138.1424  138.9038  167.6367 C.1     1  UNL1        0.1005
     19 O         139.0716  145.1689  164.2518 O.3     1  UNL1       -0.4687
     20 C         137.9754  144.4263  163.5467 C.3     1  UNL1        0.2527
     21 C         138.3141  143.3792  162.5275 C.ar    1  UNL1        0.1271
     22 N         138.6887  143.6299  161.0968 N.ar    1  UNL1       -0.1472
     23 N         138.9437  142.3031  160.4452 N.ar    1  UNL1       -0.1305
     24 C         138.7268  141.2324  161.4731 C.ar    1  UNL1        0.1641
     25 N         138.8333  139.7379  161.4035 N.ar    1  UNL1       -0.3262
     26 C         138.5506  138.9084  162.6208 C.ar    1  UNL1        0.1037
     27 N         138.6571  137.4137  162.5512 N.pl3   1  UNL1       -0.3441
     28 C         138.1615  139.5734  163.9078 C.ar    1  UNL1        0.0321
     29 C         138.0550  141.0680  163.9774 C.ar    1  UNL1        0.0072
     30 C         138.3376  141.8975  162.7601 C.ar    1  UNL1        0.0547
     31 H         139.0887  139.3014  160.5588 H       1  UNL1        0.1686
     32 H         138.9125  136.9772  161.7066 H       1  UNL1        0.1437
     33 H         138.4716  136.8693  163.3502 H       1  UNL1        0.1437
@<TRIPOS>BOND
     1    17    18    3
     2    18    10    1
     3    10    11   ar
     4    11    12   ar
     5    12    13    1
     6    12    14   ar
     7    14    15   ar
     8    15     9    1
     9     9     1    1
    10     1     2   ar
    11     2     3   ar
    12     3    19    1
    13    19    20    1
    14    20    21    1
    15    21    22   ar
    16    22    23   ar
    17    23    24   ar
    18    24    25   ar
    19    25    26   ar
    20    26    27    1
    21    26    28   ar
    22    28    29   ar
    23    29    30   ar
    24     3     4   ar
    25     4     5   ar
    26     5     6    1
    27     5     7   ar
    28     7     8    1
    29    15    16   ar
    30    16    10   ar
    31     7     1   ar
    32    30    21   ar
    33    30    24    1
    34    25    31    1
    35    27    32    1
    36    27    33    1
@<TRIPOS>MOLECULE
*****
 33 36 0 0 0
SMALL
GASTEIGER

@<TRIPOS>ATOM
      1 C         138.1307  140.6165  164.1336 C.ar    1  UNL1        0.1610
      2 C         137.9742  142.1049  164.0325 C.ar    1  UNL1        0.0754
      3 C         137.9138  142.7628  162.6859 C.ar    1  UNL1        0.1445
      4 C         138.0101  141.9325  161.4404 C.ar    1  UNL1        0.0676
      5 C         138.1666  140.4441  161.5415 C.ar    1  UNL1        0.1566
      6 F         138.2628  139.6138  160.2960 F       1  UNL1       -0.2031
      7 C         138.2269  139.7862  162.8881 C.ar    1  UNL1        0.1196
      8 CL        138.3835  138.2978  162.9893 Cl      1  UNL1       -0.0767
      9 O         138.1910  139.9584  165.4803 O.3     1  UNL1       -0.4524
     10 C         142.0785  139.6280  166.2071 C.ar    1  UNL1        0.0723
     11 C         142.0974  139.7366  167.7030 C.ar    1  UNL1        0.0219
     12 C         140.8142  139.9191  168.4581 C.ar    1  UNL1        0.0614
     13 CL        140.8332  140.0276  169.9540 Cl      1  UNL1       -0.0821
     14 C         139.5121  139.9930  167.7172 C.ar    1  UNL1        0.0489
     15 C         139.4932  139.8845  166.2212 C.ar    1  UNL1        0.1469
     16 C         140.7763  139.7020  165.4662 C.ar    1  UNL1        0.0478
     17 N         144.6449  139.2630  164.6970 N.1     1  UNL1       -0.1908
     18 C         143.3617  139.4455  165.4520 C.1     1  UNL1        0.1005
     19 O         137.7573  144.2512  162.5848 O.3     1  UNL1       -0.4687
     20 C         138.9273  145.1489  162.8596 C.3     1  UNL1        0.2527
     21 C         140.2648  144.8448  162.2523 C.ar    1  UNL1        0.1271
     22 N         140.6853  145.1539  160.8460 N.ar    1  UNL1       -0.1472
     23 N         142.0969  144.6784  160.6693 N.ar    1  UNL1       -0.1305
     24 C         142.5488  144.0755  161.9663 C.ar    1  UNL1        0.1641
     25 N         143.8451  143.4461  162.3828 N.ar    1  UNL1       -0.3262
     26 C         144.0090  142.9196  163.7778 C.ar    1  UNL1        0.1037
     27 N         145.3053  142.2902  164.1944 N.pl3   1  UNL1       -0.3441
     28 C         142.8766  143.0224  164.7561 C.ar    1  UNL1        0.0321
     29 C         141.5804  143.6518  164.3396 C.ar    1  UNL1        0.0072
     30 C         141.4165  144.1783  162.9447 C.ar    1  UNL1        0.0547
     31 H         144.5883  143.3786  161.7407 H       1  UNL1        0.1686
     32 H         146.0485  142.2227  163.5523 H       1  UNL1        0.1437
     33 H         145.4129  141.9446  165.1099 H       1  UNL1        0.1437
@<TRIPOS>BOND
     1    17    18    3
     2    18    10    1
     3    10    11   ar
     4    11    12   ar
     5    12    13    1
     6    12    14   ar
     7    14    15   ar
     8    15     9    1
     9     9     1    1
    10     1     2   ar
    11     2     3   ar
    12     3    19    1
    13    19    20    1
    14    20    21    1
    15    21    22   ar
    16    22    23   ar
    17    23    24   ar
    18    24    25   ar
    19    25    26   ar
    20    26    27    1
    21    26    28   ar
    22    28    29   ar
    23    29    30   ar
    24     3     4   ar
    25     4     5   ar
    26     5     6    1
    27     5     7   ar
    28     7     8    1
    29    15    16   ar
    30    16    10   ar
    31     7     1   ar
    32    30    21   ar
    33    30    24    1
    34    25    31    1
    35    27    32    1
    36    27    33    1
@<TRIPOS>MOLECULE
*****
 33 36 0 0 0
SMALL
GASTEIGER

@<TRIPOS>ATOM
      1 C         140.2548  139.8861  165.1591 C.ar    1  UNL1        0.1610
      2 C         139.1482  140.8551  164.8651 C.ar    1  UNL1        0.0754
      3 C         138.2510  140.6330  163.6838 C.ar    1  UNL1        0.1445
      4 C         138.4603  139.4418  162.7965 C.ar    1  UNL1        0.0676
      5 C         139.5669  138.4728  163.0904 C.ar    1  UNL1        0.1566
      6 F         139.7762  137.2817  162.2031 F       1  UNL1       -0.2031
      7 C         140.4642  138.6950  164.2717 C.ar    1  UNL1        0.1196
      8 CL        141.5708  137.7260  164.5658 Cl      1  UNL1       -0.0767
      9 O         141.1522  140.1083  166.3405 O.3     1  UNL1       -0.4524
     10 C         138.9765  140.4819  169.6384 C.ar    1  UNL1        0.0723
     11 C         139.4709  141.7999  170.1563 C.ar    1  UNL1        0.0219
     12 C         140.5257  142.5541  169.4024 C.ar    1  UNL1        0.0614
     13 CL        141.0201  143.8722  169.9204 Cl      1  UNL1       -0.0821
     14 C         141.0862  141.9902  168.1304 C.ar    1  UNL1        0.0489
     15 C         140.5918  140.6722  167.6124 C.ar    1  UNL1        0.1469
     16 C         139.5369  139.9180  168.3664 C.ar    1  UNL1        0.0478
     17 N         136.8667  138.9735  171.1464 N.1     1  UNL1       -0.1908
     18 C         137.9216  139.7277  170.3924 C.1     1  UNL1        0.1005
     19 O         137.1443  141.6020  163.3898 O.3     1  UNL1       -0.4687
     20 C         137.4564  143.0527  163.1700 C.3     1  UNL1        0.2527
     21 C         138.5451  143.4497  162.2177 C.ar    1  UNL1        0.1271
     22 N         138.4551  143.4362  160.7204 N.ar    1  UNL1       -0.1472
     23 N         139.7694  143.9081  160.1728 N.ar    1  UNL1       -0.1305
     24 C         140.6717  144.2133  161.3316 C.ar    1  UNL1        0.1641
     25 N         142.0845  144.7125  161.3992 N.ar    1  UNL1       -0.3262
     26 C         142.7407  144.9285  162.7306 C.ar    1  UNL1        0.1037
     27 N         144.1536  145.4277  162.7983 N.pl3   1  UNL1       -0.3441
     28 C         141.9841  144.6452  163.9944 C.ar    1  UNL1        0.0321
     29 C         140.5712  144.1459  163.9268 C.ar    1  UNL1        0.0072
     30 C         139.9151  143.9300  162.5954 C.ar    1  UNL1        0.0547
     31 H         142.5811  144.8984  160.5697 H       1  UNL1        0.1686
     32 H         144.6503  145.6137  161.9688 H       1  UNL1        0.1437
     33 H         144.5843  145.5695  163.6721 H       1  UNL1        0.1437
@<TRIPOS>BOND
     1    17    18    3
     2    18    10    1
     3    10    11   ar
     4    11    12   ar
     5    12    13    1
     6    12    14   ar
     7    14    15   ar
     8    15     9    1
     9     9     1    1
    10     1     2   ar
    11     2     3   ar
    12     3    19    1
    13    19    20    1
    14    20    21    1
    15    21    22   ar
    16    22    23   ar
    17    23    24   ar
    18    24    25   ar
    19    25    26   ar
    20    26    27    1
    21    26    28   ar
    22    28    29   ar
    23    29    30   ar
    24     3     4   ar
    25     4     5   ar
    26     5     6    1
    27     5     7   ar
    28     7     8    1
    29    15    16   ar
    30    16    10   ar
    31     7     1   ar
    32    30    21   ar
    33    30    24    1
    34    25    31    1
    35    27    32    1
    36    27    33    1
@<TRIPOS>MOLECULE
*****
 33 36 0 0 0
SMALL
GASTEIGER

@<TRIPOS>ATOM
      1 C         142.0440  142.9356  164.8681 C.ar    1  UNL1        0.1610
      2 C         142.8604  141.6976  165.0938 C.ar    1  UNL1        0.0754
      3 C         144.2285  141.5811  164.4899 C.ar    1  UNL1        0.1445
      4 C         144.7802  142.7024  163.6604 C.ar    1  UNL1        0.0676
      5 C         143.9638  143.9404  163.4347 C.ar    1  UNL1        0.1566
      6 F         144.5155  145.0617  162.6051 F       1  UNL1       -0.2031
      7 C         142.5957  144.0569  164.0385 C.ar    1  UNL1        0.1196
      8 CL        141.7792  145.2949  163.8129 Cl      1  UNL1       -0.0767
      9 O         140.6758  143.0522  165.4720 O.3     1  UNL1       -0.4524
     10 C         140.0980  141.3812  169.0250 C.ar    1  UNL1        0.0723
     11 C         139.3569  140.1365  168.6357 C.ar    1  UNL1        0.0219
     12 C         139.0553  139.8637  167.1919 C.ar    1  UNL1        0.0614
     13 CL        138.3142  138.6191  166.8026 Cl      1  UNL1       -0.0821
     14 C         139.4950  140.8356  166.1373 C.ar    1  UNL1        0.0489
     15 C         140.2361  142.0803  166.5266 C.ar    1  UNL1        0.1469
     16 C         140.5377  142.3531  167.9704 C.ar    1  UNL1        0.0478
     17 N         140.7011  141.9267  171.9127 N.1     1  UNL1       -0.1908
     18 C         140.3996  141.6539  170.4689 C.1     1  UNL1        0.1005
     19 O         145.0449  140.3431  164.7157 O.3     1  UNL1       -0.4687
     20 C         144.6936  139.0722  164.0003 C.3     1  UNL1        0.2527
     21 C         143.7581  139.1053  162.8283 C.ar    1  UNL1        0.1271
     22 N         144.0911  139.5880  161.4477 N.ar    1  UNL1       -0.1472
     23 N         142.8641  139.4424  160.5973 N.ar    1  UNL1       -0.1305
     24 C         141.7727  138.8698  161.4523 C.ar    1  UNL1        0.1641
     25 N         140.3472  138.5112  161.1534 N.ar    1  UNL1       -0.3262
     26 C         139.4743  137.9442  162.2334 C.ar    1  UNL1        0.1037
     27 N         138.0487  137.5856  161.9345 N.pl3   1  UNL1       -0.3441
     28 C         140.0268  137.7358  163.6122 C.ar    1  UNL1        0.0321
     29 C         141.4523  138.0944  163.9111 C.ar    1  UNL1        0.0072
     30 C         142.3252  138.6614  162.8311 C.ar    1  UNL1        0.0547
     31 H         139.9846  138.6480  160.2484 H       1  UNL1        0.1686
     32 H         137.6861  137.7223  161.0295 H       1  UNL1        0.1437
     33 H         137.4758  137.2134  162.6434 H       1  UNL1        0.1437
@<TRIPOS>BOND
     1    17    18    3
     2    18    10    1
     3    10    11   ar
     4    11    12   ar
     5    12    13    1
     6    12    14   ar
     7    14    15   ar
     8    15     9    1
     9     9     1    1
    10     1     2   ar
    11     2     3   ar
    12     3    19    1
    13    19    20    1
    14    20    21    1
    15    21    22   ar
    16    22    23   ar
    17    23    24   ar
    18    24    25   ar
    19    25    26   ar
    20    26    27    1
    21    26    28   ar
    22    28    29   ar
    23    29    30   ar
    24     3     4   ar
    25     4     5   ar
    26     5     6    1
    27     5     7   ar
    28     7     8    1
    29    15    16   ar
    30    16    10   ar
    31     7     1   ar
    32    30    21   ar
    33    30    24    1
    34    25    31    1
    35    27    32    1
    36    27    33    1
@<TRIPOS>MOLECULE
*****
 33 36 0 0 0
SMALL
GASTEIGER

@<TRIPOS>ATOM
      1 C         142.7013  141.8727  164.8859 C.ar    1  UNL1        0.1610
      2 C         141.9162  143.1202  164.6078 C.ar    1  UNL1        0.0754
      3 C         142.4506  144.1451  163.6518 C.ar    1  UNL1        0.1445
      4 C         143.7699  143.9224  162.9738 C.ar    1  UNL1        0.0676
      5 C         144.5550  142.6748  163.2518 C.ar    1  UNL1        0.1566
      6 F         145.8743  142.4522  162.5738 F       1  UNL1       -0.2031
      7 C         144.0206  141.6500  164.2079 C.ar    1  UNL1        0.1196
      8 CL        144.8056  140.4024  164.4860 Cl      1  UNL1       -0.0767
      9 O         142.1669  140.8477  165.8420 O.3     1  UNL1       -0.4524
     10 C         138.9295  138.5525  165.8698 C.ar    1  UNL1        0.0723
     11 C         138.9953  137.9530  164.4964 C.ar    1  UNL1        0.0219
     12 C         140.1183  138.3183  163.5715 C.ar    1  UNL1        0.0614
     13 CL        140.1841  137.7188  162.1981 Cl      1  UNL1       -0.0821
     14 C         141.1755  139.2832  164.0201 C.ar    1  UNL1        0.0489
     15 C         141.1097  139.8828  165.3935 C.ar    1  UNL1        0.1469
     16 C         139.9868  139.5174  166.3183 C.ar    1  UNL1        0.0478
     17 N         136.6835  137.8217  167.7195 N.1     1  UNL1       -0.1908
     18 C         137.8065  138.1871  166.7947 C.1     1  UNL1        0.1005
     19 O         141.6656  145.3926  163.3737 O.3     1  UNL1       -0.4687
     20 C         140.2026  145.3027  163.0547 C.3     1  UNL1        0.2527
     21 C         139.7390  144.4880  161.8836 C.ar    1  UNL1        0.1271
     22 N         139.8711  144.8670  160.4383 N.ar    1  UNL1       -0.1472
     23 N         139.2757  143.7644  159.6138 N.ar    1  UNL1       -0.1305
     24 C         138.7758  142.7040  160.5495 C.ar    1  UNL1        0.1641
     25 N         138.0968  141.3890  160.3053 N.ar    1  UNL1       -0.3262
     26 C         137.7041  140.5211  161.4640 C.ar    1  UNL1        0.1037
     27 N         137.0251  139.2060  161.2199 N.pl3   1  UNL1       -0.3441
     28 C         137.9905  140.9683  162.8669 C.ar    1  UNL1        0.0321
     29 C         138.6695  142.2833  163.1110 C.ar    1  UNL1        0.0072
     30 C         139.0621  143.1512  161.9523 C.ar    1  UNL1        0.0547
     31 H         137.9088  141.0955  159.3846 H       1  UNL1        0.1686
     32 H         136.8371  138.9125  160.2992 H       1  UNL1        0.1437
     33 H         136.7674  138.6365  161.9804 H       1  UNL1        0.1437
@<TRIPOS>BOND
     1    17    18    3
     2    18    10    1
     3    10    11   ar
     4    11    12   ar
     5    12    13    1
     6    12    14   ar
     7    14    15   ar
     8    15     9    1
     9     9     1    1
    10     1     2   ar
    11     2     3   ar
    12     3    19    1
    13    19    20    1
    14    20    21    1
    15    21    22   ar
    16    22    23   ar
    17    23    24   ar
    18    24    25   ar
    19    25    26   ar
    20    26    27    1
    21    26    28   ar
    22    28    29   ar
    23    29    30   ar
    24     3     4   ar
    25     4     5   ar
    26     5     6    1
    27     5     7   ar
    28     7     8    1
    29    15    16   ar
    30    16    10   ar
    31     7     1   ar
    32    30    21   ar
    33    30    24    1
    34    25    31    1
    35    27    32    1
    36    27    33    1
