@<TRIPOS>MOLECULE
*****
 37 41 0 0 0
SMALL
GASTEIGER

@<TRIPOS>ATOM
      1 N         137.8910  142.9032  163.0155 N.3     1  UNL1       -0.2687
      2 C         137.9414  142.5745  161.5528 C.3     1  UNL1        0.0737
      3 C         137.9671  141.1428  161.1063 C.3     1  UNL1        0.0359
      4 C         137.9424  140.0397  162.1225 C.3     1  UNL1        0.0901
      5 C         137.8921  140.3684  163.5852 C.3     1  UNL1        0.1911
      6 F         137.8674  139.2653  164.6014 F       1  UNL1       -0.2343
      7 C         137.8664  141.8002  164.0317 C.3     1  UNL1        0.1092
      8 N         137.9681  138.6079  161.6760 N.3     1  UNL1       -0.2913
      9 H         137.3815  138.5484  160.8437 H       1  UNL1        0.1236
     10 C         139.2731  137.9523  161.3338 C.3     1  UNL1        0.1152
     11 C         140.4770  138.1813  162.1987 C.ar    1  UNL1        0.0765
     12 C         140.6528  137.3937  163.4631 C.ar    1  UNL1        0.0193
     13 C         141.8568  137.6227  164.3281 C.ar    1  UNL1        0.0411
     14 C         142.8849  138.6392  163.9286 C.ar    1  UNL1        0.1708
     15 C         142.7091  139.4268  162.6642 C.ar    1  UNL1        0.1682
     16 N         141.5052  139.1978  161.7992 N.ar    1  UNL1       -0.2304
     17 N         143.7372  140.4434  162.2647 N.am    1  UNL1       -0.2639
     18 C         144.9411  140.6723  163.1297 C.2     1  UNL1        0.2718
     19 O         145.9693  141.6889  162.7302 O.2     1  UNL1       -0.2707
     20 C         145.1169  139.8847  164.3941 C.3     1  UNL1        0.2898
     21 O         144.0888  138.8682  164.7936 O.3     1  UNL1       -0.4628
     22 H         143.6218  140.9603  161.4348 H       1  UNL1        0.1565
     23 C         137.8654  144.3350  163.4620 C.3     1  UNL1        0.0970
     24 C         138.8959  144.8376  164.4291 C.3     1  UNL1        0.1264
     25 C         140.8967  142.0153  167.3069 C.ar    1  UNL1        0.1403
     26 C         142.3402  141.6528  167.1204 C.ar    1  UNL1        0.0385
     27 C         143.1168  142.2309  165.9747 C.ar    1  UNL1        0.0237
     28 C         142.4499  143.1717  165.0154 C.ar    1  UNL1        0.0975
     29 N         143.2265  143.7498  163.8697 N.ar    1  UNL1       -0.2374
     30 C         142.5596  144.6906  162.9105 C.ar    1  UNL1        0.1594
     31 C         141.1160  145.0532  163.0969 C.ar    1  UNL1        0.2803
     32 O         140.4491  145.9940  162.1377 O.2     1  UNL1       -0.2653
     33 N         140.3394  144.4751  164.2427 N.ar    1  UNL1       -0.2913
     34 C         141.0064  143.5343  165.2019 C.ar    1  UNL1        0.0832
     35 C         140.2298  142.9561  166.3476 C.ar    1  UNL1        0.0557
     36 C         140.5697  140.1578  169.0936 C.3     1  UNL1        0.2525
     37 O         140.1201  141.4372  168.4526 O.3     1  UNL1       -0.4714
@<TRIPOS>BOND
     1    36    37    1
     2    37    25    1
     3    25    26   ar
     4    26    27   ar
     5    27    28   ar
     6    28    29   ar
     7    29    30   ar
     8    30    31   ar
     9    31    32    2
    10    31    33   ar
    11    33    24    1
    12    24    23    1
    13    23     1    1
    14     1     2    1
    15     2     3    1
    16     3     4    1
    17     4     8    1
    18     8    10    1
    19    10    11    1
    20    11    12   ar
    21    12    13   ar
    22    13    14   ar
    23    14    15   ar
    24    15    16   ar
    25    15    17    1
    26    17    18   am
    27    18    19    2
    28    18    20    1
    29    20    21    1
    30     4     5    1
    31     5     6    1
    32     5     7    1
    33    33    34   ar
    34    34    35   ar
    35    35    25   ar
    36    34    28   ar
    37     7     1    1
    38    16    11   ar
    39    21    14    1
    40     8     9    1
    41    17    22    1
@<TRIPOS>MOLECULE
*****
 37 41 0 0 0
SMALL
GASTEIGER

@<TRIPOS>ATOM
      1 N         142.6304  144.3148  163.3602 N.3     1  UNL1       -0.2687
      2 C         142.4876  143.7885  161.9628 C.3     1  UNL1        0.0737
      3 C         141.1236  143.6036  161.3668 C.3     1  UNL1        0.0359
      4 C         139.9024  143.9450  162.1681 C.3     1  UNL1        0.0901
      5 C         140.0453  144.4713  163.5655 C.3     1  UNL1        0.1911
      6 F         138.8240  144.8127  164.3668 F       1  UNL1       -0.2343
      7 C         141.4092  144.6562  164.1615 C.3     1  UNL1        0.1092
      8 N         138.5383  143.7601  161.5721 N.3     1  UNL1       -0.2913
      9 H         138.4492  144.4458  160.8222 H       1  UNL1        0.1236
     10 C         138.1461  142.4327  160.9940 C.3     1  UNL1        0.1152
     11 C         138.3304  141.1803  161.7986 C.ar    1  UNL1        0.0765
     12 C         138.8291  139.9301  161.1366 C.ar    1  UNL1        0.0193
     13 C         139.0134  138.6776  161.9412 C.ar    1  UNL1        0.0411
     14 C         138.6990  138.6754  163.4079 C.ar    1  UNL1        0.1708
     15 C         138.2002  139.9256  164.0699 C.ar    1  UNL1        0.1682
     16 N         138.0160  141.1781  163.2653 N.ar    1  UNL1       -0.2304
     17 N         137.8858  139.9234  165.5366 N.am    1  UNL1       -0.2639
     18 C         138.0701  138.6709  166.3412 C.2     1  UNL1        0.2718
     19 O         137.7557  138.6687  167.8079 O.2     1  UNL1       -0.2707
     20 C         138.5688  137.4207  165.6792 C.3     1  UNL1        0.2898
     21 O         138.8832  137.4230  164.2125 O.3     1  UNL1       -0.4628
     22 H         137.5585  140.7439  165.9711 H       1  UNL1        0.1565
     23 C         143.9945  144.4997  163.9562 C.3     1  UNL1        0.0970
     24 C         144.5930  143.4204  164.8087 C.3     1  UNL1        0.1264
     25 C         141.6565  141.4493  167.5911 C.ar    1  UNL1        0.1403
     26 C         141.2630  140.0181  167.3749 C.ar    1  UNL1        0.0385
     27 C         141.8485  139.2439  166.2313 C.ar    1  UNL1        0.0237
     28 C         142.8273  139.9009  165.3038 C.ar    1  UNL1        0.0975
     29 N         143.4127  139.1266  164.1602 N.ar    1  UNL1       -0.2374
     30 C         144.3916  139.7836  163.2328 C.ar    1  UNL1        0.1594
     31 C         144.7850  141.2149  163.4489 C.ar    1  UNL1        0.2803
     32 O         145.7639  141.8719  162.5215 O.2     1  UNL1       -0.2653
     33 N         144.1996  141.9892  164.5925 N.ar    1  UNL1       -0.2913
     34 C         143.2207  141.3321  165.5200 C.ar    1  UNL1        0.0832
     35 C         142.6353  142.1063  166.6636 C.ar    1  UNL1        0.0557
     36 C         139.9374  141.6459  169.5292 C.3     1  UNL1        0.2525
     37 O         141.0710  142.2236  168.7347 O.3     1  UNL1       -0.4714
@<TRIPOS>BOND
     1    36    37    1
     2    37    25    1
     3    25    26   ar
     4    26    27   ar
     5    27    28   ar
     6    28    29   ar
     7    29    30   ar
     8    30    31   ar
     9    31    32    2
    10    31    33   ar
    11    33    24    1
    12    24    23    1
    13    23     1    1
    14     1     2    1
    15     2     3    1
    16     3     4    1
    17     4     8    1
    18     8    10    1
    19    10    11    1
    20    11    12   ar
    21    12    13   ar
    22    13    14   ar
    23    14    15   ar
    24    15    16   ar
    25    15    17    1
    26    17    18   am
    27    18    19    2
    28    18    20    1
    29    20    21    1
    30     4     5    1
    31     5     6    1
    32     5     7    1
    33    33    34   ar
    34    34    35   ar
    35    35    25   ar
    36    34    28   ar
    37     7     1    1
    38    16    11   ar
    39    21    14    1
    40     8     9    1
    41    17    22    1
@<TRIPOS>MOLECULE
*****
 37 41 0 0 0
SMALL
GASTEIGER

@<TRIPOS>ATOM
      1 N         141.8135  138.1776  163.9143 N.3     1  UNL1       -0.2687
      2 C         142.4121  138.7012  165.1861 C.3     1  UNL1        0.0737
      3 C         143.6892  139.4869  165.1461 C.3     1  UNL1        0.0359
      4 C         144.3677  139.7489  163.8343 C.3     1  UNL1        0.0901
      5 C         143.7692  139.2253  162.5625 C.3     1  UNL1        0.1911
      6 F         144.4477  139.4874  161.2506 F       1  UNL1       -0.2343
      7 C         142.4920  138.4396  162.6025 C.3     1  UNL1        0.1092
      8 N         145.6449  140.5347  163.7943 N.3     1  UNL1       -0.2913
      9 H         146.3527  139.9255  163.3838 H       1  UNL1        0.1236
     10 C         145.7037  141.8328  163.0450 C.3     1  UNL1        0.1152
     11 C         144.5341  142.7714  163.0780 C.ar    1  UNL1        0.0765
     12 C         144.1028  143.3868  164.3761 C.ar    1  UNL1        0.0193
     13 C         142.9332  144.3255  164.4092 C.ar    1  UNL1        0.0411
     14 C         142.1950  144.6487  163.1441 C.ar    1  UNL1        0.1708
     15 C         142.6263  144.0332  161.8459 C.ar    1  UNL1        0.1682
     16 N         143.7958  143.0946  161.8129 N.ar    1  UNL1       -0.2304
     17 N         141.8880  144.3564  160.5808 N.am    1  UNL1       -0.2639
     18 C         140.7184  145.2950  160.6139 C.2     1  UNL1        0.2718
     19 O         139.9802  145.6182  159.3487 O.2     1  UNL1       -0.2707
     20 C         140.2872  145.9105  161.9120 C.3     1  UNL1        0.2898
     21 O         141.0254  145.5873  163.1771 O.3     1  UNL1       -0.4628
     22 H         142.1711  143.9524  159.7288 H       1  UNL1        0.1565
     23 C         140.5364  137.3918  163.9544 C.3     1  UNL1        0.0970
     24 C         139.2631  138.0521  164.3936 C.3     1  UNL1        0.1264
     25 C         140.0605  142.0404  166.3191 C.ar    1  UNL1        0.1403
     26 C         139.6002  143.3015  165.6502 C.ar    1  UNL1        0.0385
     27 C         138.8740  143.2333  164.3394 C.ar    1  UNL1        0.0237
     28 C         138.6082  141.9039  163.6976 C.ar    1  UNL1        0.0975
     29 N         137.8821  141.8356  162.3868 N.ar    1  UNL1       -0.2374
     30 C         137.6163  140.5062  161.7450 C.ar    1  UNL1        0.1594
     31 C         138.0766  139.2450  162.4139 C.ar    1  UNL1        0.2803
     32 O         137.8108  137.9156  161.7721 O.2     1  UNL1       -0.2653
     33 N         138.8028  139.3132  163.7247 N.ar    1  UNL1       -0.2913
     34 C         139.0686  140.6427  164.3665 C.ar    1  UNL1        0.0832
     35 C         139.7947  140.7110  165.6773 C.ar    1  UNL1        0.0557
     36 C         142.2835  142.2017  167.6540 C.3     1  UNL1        0.2525
     37 O         140.7867  142.1086  167.6298 O.3     1  UNL1       -0.4714
@<TRIPOS>BOND
     1    36    37    1
     2    37    25    1
     3    25    26   ar
     4    26    27   ar
     5    27    28   ar
     6    28    29   ar
     7    29    30   ar
     8    30    31   ar
     9    31    32    2
    10    31    33   ar
    11    33    24    1
    12    24    23    1
    13    23     1    1
    14     1     2    1
    15     2     3    1
    16     3     4    1
    17     4     8    1
    18     8    10    1
    19    10    11    1
    20    11    12   ar
    21    12    13   ar
    22    13    14   ar
    23    14    15   ar
    24    15    16   ar
    25    15    17    1
    26    17    18   am
    27    18    19    2
    28    18    20    1
    29    20    21    1
    30     4     5    1
    31     5     6    1
    32     5     7    1
    33    33    34   ar
    34    34    35   ar
    35    35    25   ar
    36    34    28   ar
    37     7     1    1
    38    16    11   ar
    39    21    14    1
    40     8     9    1
    41    17    22    1
@<TRIPOS>MOLECULE
*****
 37 41 0 0 0
SMALL
GASTEIGER

@<TRIPOS>ATOM
      1 N         141.3042  138.3205  163.4517 N.3     1  UNL1       -0.2687
      2 C         141.5337  138.9075  162.0905 C.3     1  UNL1        0.0737
      3 C         142.8327  139.5888  161.7769 C.3     1  UNL1        0.0359
      4 C         143.9021  139.6832  162.8244 C.3     1  UNL1        0.0901
      5 C         143.6726  139.0962  164.1856 C.3     1  UNL1        0.1911
      6 F         144.7421  139.1906  165.2331 F       1  UNL1       -0.2343
      7 C         142.3736  138.4149  164.4992 C.3     1  UNL1        0.1092
      8 N         145.2012  140.3645  162.5108 N.3     1  UNL1       -0.2913
      9 H         145.3331  140.2968  161.5016 H       1  UNL1        0.1236
     10 C         145.4001  141.8053  162.8777 C.3     1  UNL1        0.1152
     11 C         144.2279  142.7407  162.9064 C.ar    1  UNL1        0.0765
     12 C         143.7121  143.2568  164.2169 C.ar    1  UNL1        0.0193
     13 C         142.5398  144.1922  164.2456 C.ar    1  UNL1        0.0411
     14 C         141.8833  144.6115  162.9637 C.ar    1  UNL1        0.1708
     15 C         142.3992  144.0954  161.6531 C.ar    1  UNL1        0.1682
     16 N         143.5714  143.1600  161.6245 N.ar    1  UNL1       -0.2304
     17 N         141.7428  144.5147  160.3712 N.am    1  UNL1       -0.2639
     18 C         140.5705  145.4501  160.3999 C.2     1  UNL1        0.2718
     19 O         139.9140  145.8694  159.1180 O.2     1  UNL1       -0.2707
     20 C         140.0547  145.9662  161.7104 C.3     1  UNL1        0.2898
     21 O         140.7111  145.5469  162.9923 O.3     1  UNL1       -0.4628
     22 H         142.0813  144.1759  159.5110 H       1  UNL1        0.1565
     23 C         140.0051  137.6391  163.7653 C.3     1  UNL1        0.0970
     24 C         138.8959  138.4055  164.4227 C.3     1  UNL1        0.1264
     25 C         140.5767  141.1010  167.6100 C.ar    1  UNL1        0.1403
     26 C         140.4974  142.5904  167.4511 C.ar    1  UNL1        0.0385
     27 C         139.8577  143.1814  166.2298 C.ar    1  UNL1        0.0237
     28 C         139.2975  142.2829  165.1674 C.ar    1  UNL1        0.0975
     29 N         138.6578  142.8739  163.9460 N.ar    1  UNL1       -0.2374
     30 C         138.0976  141.9754  162.8836 C.ar    1  UNL1        0.1594
     31 C         138.1769  140.4859  163.0425 C.ar    1  UNL1        0.2803
     32 O         137.6166  139.5874  161.9800 O.2     1  UNL1       -0.2653
     33 N         138.8165  139.8949  164.2638 N.ar    1  UNL1       -0.2913
     34 C         139.3768  140.7935  165.3263 C.ar    1  UNL1        0.0832
     35 C         140.0164  140.2025  166.5476 C.ar    1  UNL1        0.0557
     36 C         142.5544  139.8402  168.7276 C.3     1  UNL1        0.2525
     37 O         141.2163  140.5100  168.8314 O.3     1  UNL1       -0.4714
@<TRIPOS>BOND
     1    36    37    1
     2    37    25    1
     3    25    26   ar
     4    26    27   ar
     5    27    28   ar
     6    28    29   ar
     7    29    30   ar
     8    30    31   ar
     9    31    32    2
    10    31    33   ar
    11    33    24    1
    12    24    23    1
    13    23     1    1
    14     1     2    1
    15     2     3    1
    16     3     4    1
    17     4     8    1
    18     8    10    1
    19    10    11    1
    20    11    12   ar
    21    12    13   ar
    22    13    14   ar
    23    14    15   ar
    24    15    16   ar
    25    15    17    1
    26    17    18   am
    27    18    19    2
    28    18    20    1
    29    20    21    1
    30     4     5    1
    31     5     6    1
    32     5     7    1
    33    33    34   ar
    34    34    35   ar
    35    35    25   ar
    36    34    28   ar
    37     7     1    1
    38    16    11   ar
    39    21    14    1
    40     8     9    1
    41    17    22    1
@<TRIPOS>MOLECULE
*****
 37 41 0 0 0
SMALL
GASTEIGER

@<TRIPOS>ATOM
      1 N         140.9894  144.9181  162.8898 N.3     1  UNL1       -0.2687
      2 C         142.0902  145.0225  163.9034 C.3     1  UNL1        0.0737
      3 C         143.4515  144.4754  163.5913 C.3     1  UNL1        0.0359
      4 C         143.7120  143.8240  162.2655 C.3     1  UNL1        0.0901
      5 C         142.6112  143.7196  161.2519 C.3     1  UNL1        0.1911
      6 F         142.8718  143.0682  159.9260 F       1  UNL1       -0.2343
      7 C         141.2499  144.2667  161.5641 C.3     1  UNL1        0.1092
      8 N         145.0734  143.2769  161.9533 N.3     1  UNL1       -0.2913
      9 H         145.6767  143.5230  162.7380 H       1  UNL1        0.1236
     10 C         145.2540  141.8074  161.7124 C.3     1  UNL1        0.1152
     11 C         144.5106  140.8126  162.5537 C.ar    1  UNL1        0.0765
     12 C         145.1023  140.3321  163.8456 C.ar    1  UNL1        0.0193
     13 C         144.3589  139.3373  164.6869 C.ar    1  UNL1        0.0411
     14 C         143.0238  138.8230  164.2363 C.ar    1  UNL1        0.1708
     15 C         142.4321  139.3035  162.9443 C.ar    1  UNL1        0.1682
     16 N         143.1755  140.2983  162.1031 N.ar    1  UNL1       -0.2304
     17 N         141.0971  138.7892  162.4937 N.am    1  UNL1       -0.2639
     18 C         140.3537  137.7944  163.3350 C.2     1  UNL1        0.2718
     19 O         139.0186  137.2801  162.8844 O.2     1  UNL1       -0.2707
     20 C         140.9454  137.3139  164.6269 C.3     1  UNL1        0.2898
     21 O         142.2804  137.8282  165.0775 O.3     1  UNL1       -0.4628
     22 H         140.7087  139.1046  161.6457 H       1  UNL1        0.1565
     23 C         139.6280  145.4652  163.2021 C.3     1  UNL1        0.0970
     24 C         138.7396  144.7533  164.1787 C.3     1  UNL1        0.1264
     25 C         140.5076  142.4260  167.6003 C.ar    1  UNL1        0.1403
     26 C         140.4427  140.9274  167.6009 C.ar    1  UNL1        0.0385
     27 C         139.7884  140.2046  166.4609 C.ar    1  UNL1        0.0237
     28 C         139.1991  140.9804  165.3204 C.ar    1  UNL1        0.0975
     29 N         138.5449  140.2576  164.1804 N.ar    1  UNL1       -0.2374
     30 C         137.9556  141.0333  163.0399 C.ar    1  UNL1        0.1594
     31 C         138.0204  142.5320  163.0393 C.ar    1  UNL1        0.2803
     32 O         137.4311  143.3077  161.8988 O.2     1  UNL1       -0.2653
     33 N         138.6747  143.2548  164.1793 N.ar    1  UNL1       -0.2913
     34 C         139.2640  142.4789  165.3198 C.ar    1  UNL1        0.0832
     35 C         139.9182  143.2017  166.4598 C.ar    1  UNL1        0.0557
     36 C         140.3475  143.5699  169.9275 C.3     1  UNL1        0.2525
     37 O         141.1618  143.1488  168.7403 O.3     1  UNL1       -0.4714
@<TRIPOS>BOND
     1    36    37    1
     2    37    25    1
     3    25    26   ar
     4    26    27   ar
     5    27    28   ar
     6    28    29   ar
     7    29    30   ar
     8    30    31   ar
     9    31    32    2
    10    31    33   ar
    11    33    24    1
    12    24    23    1
    13    23     1    1
    14     1     2    1
    15     2     3    1
    16     3     4    1
    17     4     8    1
    18     8    10    1
    19    10    11    1
    20    11    12   ar
    21    12    13   ar
    22    13    14   ar
    23    14    15   ar
    24    15    16   ar
    25    15    17    1
    26    17    18   am
    27    18    19    2
    28    18    20    1
    29    20    21    1
    30     4     5    1
    31     5     6    1
    32     5     7    1
    33    33    34   ar
    34    34    35   ar
    35    35    25   ar
    36    34    28   ar
    37     7     1    1
    38    16    11   ar
    39    21    14    1
    40     8     9    1
    41    17    22    1
@<TRIPOS>MOLECULE
*****
 37 41 0 0 0
SMALL
GASTEIGER

@<TRIPOS>ATOM
      1 N         142.8281  138.4999  163.6513 N.3     1  UNL1       -0.2687
      2 C         142.7103  138.5140  162.1560 C.3     1  UNL1        0.0737
      3 C         141.4121  138.1436  161.5024 C.3     1  UNL1        0.0359
      4 C         140.2316  137.7591  162.3441 C.3     1  UNL1        0.0901
      5 C         140.3493  137.7449  163.8394 C.3     1  UNL1        0.1911
      6 F         139.1688  137.3604  164.6811 F       1  UNL1       -0.2343
      7 C         141.6476  138.1153  164.4930 C.3     1  UNL1        0.1092
      8 N         138.9332  137.3886  161.6905 N.3     1  UNL1       -0.2913
      9 H         138.6593  136.4831  162.0719 H       1  UNL1        0.1236
     10 C         137.7428  138.2918  161.8220 C.3     1  UNL1        0.1152
     11 C         137.9265  139.7805  161.8146 C.ar    1  UNL1        0.0765
     12 C         138.2111  140.4946  160.5266 C.ar    1  UNL1        0.0193
     13 C         138.3948  141.9834  160.5192 C.ar    1  UNL1        0.0411
     14 C         138.2937  142.7579  161.7997 C.ar    1  UNL1        0.1708
     15 C         138.0091  142.0437  163.0878 C.ar    1  UNL1        0.1682
     16 N         137.8254  140.5550  163.0952 N.ar    1  UNL1       -0.2304
     17 N         137.9080  142.8182  164.3683 N.am    1  UNL1       -0.2639
     18 C         138.0917  144.3070  164.3609 C.2     1  UNL1        0.2718
     19 O         137.9906  145.0815  165.6415 O.2     1  UNL1       -0.2707
     20 C         138.3763  145.0211  163.0729 C.3     1  UNL1        0.2898
     21 O         138.4774  144.2466  161.7923 O.3     1  UNL1       -0.4628
     22 H         137.7212  142.3495  165.2137 H       1  UNL1        0.1565
     23 C         144.1265  138.8703  164.3049 C.3     1  UNL1        0.0970
     24 C         144.4212  140.3053  164.6275 C.3     1  UNL1        0.1264
     25 C         141.8060  141.0416  168.2148 C.ar    1  UNL1        0.1403
     26 C         140.7118  142.0654  168.1477 C.ar    1  UNL1        0.0385
     27 C         140.4893  142.8437  166.8849 C.ar    1  UNL1        0.0237
     28 C         141.3610  142.5983  165.6891 C.ar    1  UNL1        0.0975
     29 N         141.1385  143.3766  164.4263 N.ar    1  UNL1       -0.2374
     30 C         142.0102  143.1312  163.2306 C.ar    1  UNL1        0.1594
     31 C         143.1044  142.1074  163.2976 C.ar    1  UNL1        0.2803
     32 O         143.9761  141.8619  162.1019 O.2     1  UNL1       -0.2653
     33 N         143.3270  141.3290  164.5604 N.ar    1  UNL1       -0.2913
     34 C         142.4552  141.5745  165.7562 C.ar    1  UNL1        0.0832
     35 C         142.6777  140.7962  167.0190 C.ar    1  UNL1        0.0557
     36 C         140.8578  139.8438  170.3162 C.3     1  UNL1        0.2525
     37 O         142.0285  140.2633  169.4776 O.3     1  UNL1       -0.4714
@<TRIPOS>BOND
     1    36    37    1
     2    37    25    1
     3    25    26   ar
     4    26    27   ar
     5    27    28   ar
     6    28    29   ar
     7    29    30   ar
     8    30    31   ar
     9    31    32    2
    10    31    33   ar
    11    33    24    1
    12    24    23    1
    13    23     1    1
    14     1     2    1
    15     2     3    1
    16     3     4    1
    17     4     8    1
    18     8    10    1
    19    10    11    1
    20    11    12   ar
    21    12    13   ar
    22    13    14   ar
    23    14    15   ar
    24    15    16   ar
    25    15    17    1
    26    17    18   am
    27    18    19    2
    28    18    20    1
    29    20    21    1
    30     4     5    1
    31     5     6    1
    32     5     7    1
    33    33    34   ar
    34    34    35   ar
    35    35    25   ar
    36    34    28   ar
    37     7     1    1
    38    16    11   ar
    39    21    14    1
    40     8     9    1
    41    17    22    1
@<TRIPOS>MOLECULE
*****
 37 41 0 0 0
SMALL
GASTEIGER

@<TRIPOS>ATOM
      1 N         140.6179  140.0012  160.6154 N.3     1  UNL1       -0.2687
      2 C         141.1761  138.6582  160.9827 C.3     1  UNL1        0.0737
      3 C         142.5471  138.5544  161.5823 C.3     1  UNL1        0.0359
      4 C         143.3599  139.7935  161.8145 C.3     1  UNL1        0.0901
      5 C         142.8017  141.1364  161.4472 C.3     1  UNL1        0.1911
      6 F         143.6145  142.3756  161.6794 F       1  UNL1       -0.2343
      7 C         141.4307  141.2403  160.8476 C.3     1  UNL1        0.1092
      8 N         144.7310  139.6897  162.4141 N.3     1  UNL1       -0.2913
      9 H         145.2394  140.5283  162.1334 H       1  UNL1        0.1236
     10 C         144.8921  139.5628  163.9001 C.3     1  UNL1        0.1152
     11 C         143.9964  140.3378  164.8204 C.ar    1  UNL1        0.0765
     12 C         144.1343  141.8279  164.9222 C.ar    1  UNL1        0.0193
     13 C         143.2386  142.6030  165.8426 C.ar    1  UNL1        0.0411
     14 C         142.2050  141.8878  166.6613 C.ar    1  UNL1        0.1708
     15 C         142.0671  140.3975  166.5595 C.ar    1  UNL1        0.1682
     16 N         142.9628  139.6226  165.6391 N.ar    1  UNL1       -0.2304
     17 N         141.0335  139.6823  167.3781 N.am    1  UNL1       -0.2639
     18 C         140.1378  140.4574  168.2985 C.2     1  UNL1        0.2718
     19 O         139.1042  139.7422  169.1172 O.2     1  UNL1       -0.2707
     20 C         140.2757  141.9475  168.4003 C.3     1  UNL1        0.2898
     21 O         141.3093  142.6627  167.5816 O.3     1  UNL1       -0.4628
     22 H         140.9430  138.7043  167.3113 H       1  UNL1        0.1565
     23 C         139.2468  140.1049  160.0158 C.3     1  UNL1        0.0970
     24 C         138.0541  140.3092  160.9022 C.3     1  UNL1        0.1264
     25 C         138.4931  144.3351  162.8642 C.ar    1  UNL1        0.1403
     26 C         138.6707  144.4296  164.3506 C.ar    1  UNL1        0.0385
     27 C         138.7020  143.1822  165.1830 C.ar    1  UNL1        0.0237
     28 C         138.5557  141.8402  164.5291 C.ar    1  UNL1        0.0975
     29 N         138.5871  140.5928  165.3615 N.ar    1  UNL1       -0.2374
     30 C         138.4407  139.2509  164.7075 C.ar    1  UNL1        0.1594
     31 C         138.2631  139.1563  163.2210 C.ar    1  UNL1        0.2803
     32 O         138.1168  137.8143  162.5670 O.2     1  UNL1       -0.2653
     33 N         138.2318  140.4037  162.3886 N.ar    1  UNL1       -0.2913
     34 C         138.3781  141.7457  163.0427 C.ar    1  UNL1        0.0832
     35 C         138.3468  142.9931  162.2102 C.ar    1  UNL1        0.0557
     36 C         139.7416  146.2792  161.6762 C.3     1  UNL1        0.2525
     37 O         138.4618  145.5825  162.0318 O.3     1  UNL1       -0.4714
@<TRIPOS>BOND
     1    36    37    1
     2    37    25    1
     3    25    26   ar
     4    26    27   ar
     5    27    28   ar
     6    28    29   ar
     7    29    30   ar
     8    30    31   ar
     9    31    32    2
    10    31    33   ar
    11    33    24    1
    12    24    23    1
    13    23     1    1
    14     1     2    1
    15     2     3    1
    16     3     4    1
    17     4     8    1
    18     8    10    1
    19    10    11    1
    20    11    12   ar
    21    12    13   ar
    22    13    14   ar
    23    14    15   ar
    24    15    16   ar
    25    15    17    1
    26    17    18   am
    27    18    19    2
    28    18    20    1
    29    20    21    1
    30     4     5    1
    31     5     6    1
    32     5     7    1
    33    33    34   ar
    34    34    35   ar
    35    35    25   ar
    36    34    28   ar
    37     7     1    1
    38    16    11   ar
    39    21    14    1
    40     8     9    1
    41    17    22    1
@<TRIPOS>MOLECULE
*****
 37 41 0 0 0
SMALL
GASTEIGER

@<TRIPOS>ATOM
      1 N         138.9588  143.1200  162.8267 N.3     1  UNL1       -0.2687
      2 C         139.5940  143.3381  164.1679 C.3     1  UNL1        0.0737
      3 C         140.8773  144.1075  164.2738 C.3     1  UNL1        0.0359
      4 C         141.5252  144.6588  163.0384 C.3     1  UNL1        0.0901
      5 C         140.8900  144.4407  161.6972 C.3     1  UNL1        0.1911
      6 F         141.5380  144.9921  160.4618 F       1  UNL1       -0.2343
      7 C         139.6067  143.6713  161.5914 C.3     1  UNL1        0.1092
      8 N         142.8085  145.4283  163.1442 N.3     1  UNL1       -0.2913
      9 H         142.8330  145.8328  164.0803 H       1  UNL1        0.1236
     10 C         144.1205  144.7305  162.9395 C.3     1  UNL1        0.1152
     11 C         144.1676  143.2341  162.8471 C.ar    1  UNL1        0.0765
     12 C         144.5412  142.4198  164.0501 C.ar    1  UNL1        0.0193
     13 C         144.5884  140.9233  163.9576 C.ar    1  UNL1        0.0411
     14 C         144.2620  140.2413  162.6621 C.ar    1  UNL1        0.1708
     15 C         143.8884  141.0557  161.4591 C.ar    1  UNL1        0.1682
     16 N         143.8412  142.5521  161.5516 N.ar    1  UNL1       -0.2304
     17 N         143.5620  140.3737  160.1636 N.am    1  UNL1       -0.2639
     18 C         143.6091  138.8772  160.0712 C.2     1  UNL1        0.2718
     19 O         143.2827  138.1952  158.7757 O.2     1  UNL1       -0.2707
     20 C         143.9827  138.0629  161.2742 C.3     1  UNL1        0.2898
     21 O         144.3091  138.7449  162.5697 O.3     1  UNL1       -0.4628
     22 H         143.3168  140.9082  159.3740 H       1  UNL1        0.1565
     23 C         137.6755  142.3505  162.7209 C.3     1  UNL1        0.0970
     24 C         137.5615  140.9924  163.3475 C.3     1  UNL1        0.1264
     25 C         140.9538  139.6214  165.9671 C.ar    1  UNL1        0.1403
     26 C         141.8499  138.5079  165.5122 C.ar    1  UNL1        0.0385
     27 C         141.6153  137.8514  164.1840 C.ar    1  UNL1        0.0237
     28 C         140.4846  138.3084  163.3108 C.ar    1  UNL1        0.0975
     29 N         140.2500  137.6519  161.9827 N.ar    1  UNL1       -0.2374
     30 C         139.1192  138.1089  161.1095 C.ar    1  UNL1        0.1594
     31 C         138.2230  139.2225  161.5644 C.ar    1  UNL1        0.2803
     32 O         137.0923  139.6795  160.6912 O.2     1  UNL1       -0.2653
     33 N         138.4576  139.8790  162.8926 N.ar    1  UNL1       -0.2913
     34 C         139.5884  139.4219  163.7658 C.ar    1  UNL1        0.0832
     35 C         139.8230  140.0784  165.0939 C.ar    1  UNL1        0.0557
     36 C         142.1151  139.6458  168.2911 C.3     1  UNL1        0.2525
     37 O         141.1884  140.2779  167.2953 O.3     1  UNL1       -0.4714
@<TRIPOS>BOND
     1    36    37    1
     2    37    25    1
     3    25    26   ar
     4    26    27   ar
     5    27    28   ar
     6    28    29   ar
     7    29    30   ar
     8    30    31   ar
     9    31    32    2
    10    31    33   ar
    11    33    24    1
    12    24    23    1
    13    23     1    1
    14     1     2    1
    15     2     3    1
    16     3     4    1
    17     4     8    1
    18     8    10    1
    19    10    11    1
    20    11    12   ar
    21    12    13   ar
    22    13    14   ar
    23    14    15   ar
    24    15    16   ar
    25    15    17    1
    26    17    18   am
    27    18    19    2
    28    18    20    1
    29    20    21    1
    30     4     5    1
    31     5     6    1
    32     5     7    1
    33    33    34   ar
    34    34    35   ar
    35    35    25   ar
    36    34    28   ar
    37     7     1    1
    38    16    11   ar
    39    21    14    1
    40     8     9    1
    41    17    22    1
@<TRIPOS>MOLECULE
*****
 37 41 0 0 0
SMALL
GASTEIGER

@<TRIPOS>ATOM
      1 N         138.1121  139.8605  162.6581 N.3     1  UNL1       -0.2687
      2 C         137.8631  140.6136  163.9312 C.3     1  UNL1        0.0737
      3 C         137.7047  142.1049  163.9017 C.3     1  UNL1        0.0359
      4 C         137.7954  142.8431  162.5991 C.3     1  UNL1        0.0901
      5 C         138.0444  142.0900  161.3260 C.3     1  UNL1        0.1911
      6 F         138.1351  142.8283  160.0233 F       1  UNL1       -0.2343
      7 C         138.2028  140.5987  161.3555 C.3     1  UNL1        0.1092
      8 N         137.6370  144.3345  162.5695 N.3     1  UNL1       -0.2913
      9 H         137.0515  144.5843  163.3666 H       1  UNL1        0.1236
     10 C         138.8474  145.2185  162.6275 C.3     1  UNL1        0.1152
     11 C         140.1674  144.7169  162.1217 C.ar    1  UNL1        0.0765
     12 C         140.5303  144.8870  160.6762 C.ar    1  UNL1        0.0193
     13 C         141.8504  144.3853  160.1703 C.ar    1  UNL1        0.0411
     14 C         142.8075  143.7136  161.1099 C.ar    1  UNL1        0.1708
     15 C         142.4445  143.5436  162.5554 C.ar    1  UNL1        0.1682
     16 N         141.1244  144.0452  163.0613 N.ar    1  UNL1       -0.2304
     17 N         143.4015  142.8719  163.4951 N.am    1  UNL1       -0.2639
     18 C         144.7216  142.3703  162.9892 C.2     1  UNL1        0.2718
     19 O         145.6787  141.6986  163.9288 O.2     1  UNL1       -0.2707
     20 C         145.0845  142.5403  161.5437 C.3     1  UNL1        0.2898
     21 O         144.1275  143.2120  160.6041 O.3     1  UNL1       -0.4628
     22 H         143.1633  142.7603  164.4438 H       1  UNL1        0.1565
     23 C         138.2705  138.3692  162.6876 C.3     1  UNL1        0.0970
     24 C         139.1235  137.7263  163.7408 C.3     1  UNL1        0.1264
     25 C         140.0692  139.7231  167.6610 C.ar    1  UNL1        0.1403
     26 C         141.4522  140.2403  167.9248 C.ar    1  UNL1        0.0385
     27 C         142.5200  140.0919  166.8819 C.ar    1  UNL1        0.0237
     28 C         142.2048  139.4263  165.5751 C.ar    1  UNL1        0.0975
     29 N         143.2727  139.2779  164.5322 N.ar    1  UNL1       -0.2374
     30 C         142.9575  138.6123  163.2255 C.ar    1  UNL1        0.1594
     31 C         141.5744  138.0951  162.9616 C.ar    1  UNL1        0.2803
     32 O         141.2592  137.4295  161.6549 O.2     1  UNL1       -0.2653
     33 N         140.5065  138.2435  164.0046 N.ar    1  UNL1       -0.2913
     34 C         140.8218  138.9091  165.3113 C.ar    1  UNL1        0.0832
     35 C         139.7540  139.0575  166.3543 C.ar    1  UNL1        0.0557
     36 C         139.3110  140.5556  170.0024 C.3     1  UNL1        0.2525
     37 O         139.0013  139.8715  168.7039 O.3     1  UNL1       -0.4714
@<TRIPOS>BOND
     1    36    37    1
     2    37    25    1
     3    25    26   ar
     4    26    27   ar
     5    27    28   ar
     6    28    29   ar
     7    29    30   ar
     8    30    31   ar
     9    31    32    2
    10    31    33   ar
    11    33    24    1
    12    24    23    1
    13    23     1    1
    14     1     2    1
    15     2     3    1
    16     3     4    1
    17     4     8    1
    18     8    10    1
    19    10    11    1
    20    11    12   ar
    21    12    13   ar
    22    13    14   ar
    23    14    15   ar
    24    15    16   ar
    25    15    17    1
    26    17    18   am
    27    18    19    2
    28    18    20    1
    29    20    21    1
    30     4     5    1
    31     5     6    1
    32     5     7    1
    33    33    34   ar
    34    34    35   ar
    35    35    25   ar
    36    34    28   ar
    37     7     1    1
    38    16    11   ar
    39    21    14    1
    40     8     9    1
    41    17    22    1
