@<TRIPOS>MOLECULE
*****
 24 27 0 0 0
SMALL
GASTEIGER

@<TRIPOS>ATOM
      1 C         139.5676  141.5317  164.5522 C.ar    1  UNL1        0.1133
      2 C         140.3420  142.7186  165.0435 C.ar    1  UNL1        0.0189
      3 C         140.7211  142.8198  166.4913 C.ar    1  UNL1        0.0041
      4 C         140.3258  141.7341  167.4478 C.ar    1  UNL1        0.0333
      5 C         140.5563  141.5603  168.9198 C.ar    1  UNL1        0.0138
      6 C         139.9243  140.2658  169.3382 C.ar    1  UNL1        0.1348
      7 O         139.3033  139.6397  168.1248 O.2     1  UNL1       -0.4567
      8 C         139.5514  140.5471  166.9565 C.ar    1  UNL1        0.1459
      9 C         139.1723  140.4459  165.5087 C.ar    1  UNL1        0.0562
     10 C         139.9959  139.8246  170.7700 C.3     1  UNL1        0.1338
     11 N         140.6996  140.6777  171.7834 N.3     1  UNL1       -0.2908
     12 C         141.3316  141.9721  171.3649 C.3     1  UNL1        0.0737
     13 C         141.2599  142.4134  169.9331 C.3     1  UNL1        0.0463
     14 H         141.4410  140.1049  172.1867 H       1  UNL1        0.1237
     15 O         137.9382  140.6934  163.4834 O.2     1  UNL1       -0.1642
     16 S         139.1885  141.4305  163.1044 S.O2    1  UNL1        0.0276
     17 O         140.4388  142.1675  162.7255 O.2     1  UNL1       -0.1642
     18 C         138.8094  141.3293  161.6566 C.ar    1  UNL1        0.1125
     19 C         138.1499  140.0853  161.1392 C.ar    1  UNL1        0.0189
     20 C         137.7708  139.9841  159.6915 C.ar    1  UNL1        0.0036
     21 C         138.0512  141.1269  158.7612 C.ar    1  UNL1        0.0297
     22 C         138.7106  142.3708  159.2786 C.ar    1  UNL1        0.1414
     23 F         138.9910  143.5136  158.3482 F       1  UNL1       -0.2041
     24 C         139.0897  142.4720  160.7264 C.ar    1  UNL1        0.0484
@<TRIPOS>BOND
     1    15    16    2
     2    16    17    2
     3    16    18    1
     4    18    19   ar
     5    19    20   ar
     6    20    21   ar
     7    21    22   ar
     8    22    23    1
     9    22    24   ar
    10    16     1    1
    11     1     2   ar
    12     2     3   ar
    13     3     4   ar
    14     4     5   ar
    15     5     6   ar
    16     6     7   ar
    17     7     8   ar
    18     8     9   ar
    19     6    10    1
    20    10    11    1
    21    11    12    1
    22    12    13    1
    23    24    18   ar
    24     9     1   ar
    25     8     4   ar
    26    13     5    1
    27    11    14    1
@<TRIPOS>MOLECULE
*****
 24 27 0 0 0
SMALL
GASTEIGER

@<TRIPOS>ATOM
      1 C         141.2551  139.4832  164.4594 C.ar    1  UNL1        0.1133
      2 C         140.0691  140.2610  164.9478 C.ar    1  UNL1        0.0189
      3 C         139.9616  140.6337  166.3967 C.ar    1  UNL1        0.0041
      4 C         141.0400  140.2286  167.3574 C.ar    1  UNL1        0.0333
      5 C         141.2066  140.4512  168.8314 C.ar    1  UNL1        0.0138
      6 C         142.4955  139.8110  169.2541 C.ar    1  UNL1        0.1348
      7 O         143.1255  139.1927  168.0413 O.2     1  UNL1       -0.4567
      8 C         142.2260  139.4508  166.8691 C.ar    1  UNL1        0.1459
      9 C         142.3335  139.0781  165.4201 C.ar    1  UNL1        0.0562
     10 C         142.9290  139.8737  170.6887 C.3     1  UNL1        0.1338
     11 N         142.0735  140.5766  171.7006 N.3     1  UNL1       -0.2908
     12 C         140.7846  141.2169  171.2779 C.3     1  UNL1        0.0737
     13 C         140.3511  141.1542  169.8433 C.3     1  UNL1        0.0463
     14 H         142.6476  141.3133  172.1107 H       1  UNL1        0.1237
     15 O         142.4728  138.1565  163.3382 O.2     1  UNL1       -0.1642
     16 S         141.3627  139.1105  163.0104 S.O2    1  UNL1        0.0276
     17 O         140.2525  140.0645  162.6826 O.2     1  UNL1       -0.1642
     18 C         141.4702  138.7378  161.5615 C.ar    1  UNL1        0.1125
     19 C         142.7206  138.0903  161.0444 C.ar    1  UNL1        0.0189
     20 C         142.8282  137.7176  159.5955 C.ar    1  UNL1        0.0036
     21 C         141.6854  137.9924  158.6636 C.ar    1  UNL1        0.0297
     22 C         140.4350  138.6399  159.1806 C.ar    1  UNL1        0.1414
     23 F         139.2922  138.9147  158.2487 F       1  UNL1       -0.2041
     24 C         140.3275  139.0126  160.6296 C.ar    1  UNL1        0.0484
@<TRIPOS>BOND
     1    15    16    2
     2    16    17    2
     3    16    18    1
     4    18    19   ar
     5    19    20   ar
     6    20    21   ar
     7    21    22   ar
     8    22    23    1
     9    22    24   ar
    10    16     1    1
    11     1     2   ar
    12     2     3   ar
    13     3     4   ar
    14     4     5   ar
    15     5     6   ar
    16     6     7   ar
    17     7     8   ar
    18     8     9   ar
    19     6    10    1
    20    10    11    1
    21    11    12    1
    22    12    13    1
    23    24    18   ar
    24     9     1   ar
    25     8     4   ar
    26    13     5    1
    27    11    14    1
@<TRIPOS>MOLECULE
*****
 24 27 0 0 0
SMALL
GASTEIGER

@<TRIPOS>ATOM
      1 C         141.0350  140.0074  164.8759 C.ar    1  UNL1        0.1133
      2 C         142.3862  139.4050  164.6281 C.ar    1  UNL1        0.0189
      3 C         142.7399  138.8920  163.2636 C.ar    1  UNL1        0.0041
      4 C         141.7424  138.9814  162.1469 C.ar    1  UNL1        0.0333
      5 C         141.8064  138.5627  160.7080 C.ar    1  UNL1        0.0138
      6 C         140.4948  138.9063  160.0664 C.ar    1  UNL1        0.1348
      7 O         139.6202  139.5374  161.1089 O.2     1  UNL1       -0.4567
      8 C         140.3912  139.5839  162.3947 C.ar    1  UNL1        0.1459
      9 C         140.0375  140.0968  163.7592 C.ar    1  UNL1        0.0562
     10 C         140.2664  138.6002  158.6159 C.3     1  UNL1        0.1338
     11 N         141.3495  137.9504  157.8070 N.3     1  UNL1       -0.2908
     12 C         142.6611  137.6068  158.4485 C.3     1  UNL1        0.0737
     13 C         142.8896  137.9129  159.8990 C.3     1  UNL1        0.0463
     14 H         141.5568  138.5807  157.0323 H       1  UNL1        0.1237
     15 O         141.8668  141.4387  166.2024 O.2     1  UNL1       -0.1642
     16 S         140.6813  140.5204  166.2404 S.O2    1  UNL1        0.0276
     17 O         139.4959  139.6020  166.2784 O.2     1  UNL1       -0.1642
     18 C         140.3276  141.0334  167.6049 C.ar    1  UNL1        0.1125
     19 C         139.5847  140.1547  168.5671 C.ar    1  UNL1        0.0189
     20 C         139.2311  140.6676  169.9315 C.ar    1  UNL1        0.0036
     21 C         139.6203  142.0593  170.3337 C.ar    1  UNL1        0.0297
     22 C         140.3632  142.9380  169.3715 C.ar    1  UNL1        0.1414
     23 F         140.7525  144.3297  169.7736 F       1  UNL1       -0.2041
     24 C         140.7169  142.4250  168.0070 C.ar    1  UNL1        0.0484
@<TRIPOS>BOND
     1    15    16    2
     2    16    17    2
     3    16    18    1
     4    18    19   ar
     5    19    20   ar
     6    20    21   ar
     7    21    22   ar
     8    22    23    1
     9    22    24   ar
    10    16     1    1
    11     1     2   ar
    12     2     3   ar
    13     3     4   ar
    14     4     5   ar
    15     5     6   ar
    16     6     7   ar
    17     7     8   ar
    18     8     9   ar
    19     6    10    1
    20    10    11    1
    21    11    12    1
    22    12    13    1
    23    24    18   ar
    24     9     1   ar
    25     8     4   ar
    26    13     5    1
    27    11    14    1
@<TRIPOS>MOLECULE
*****
 24 27 0 0 0
SMALL
GASTEIGER

@<TRIPOS>ATOM
      1 C         139.8955  140.5258  164.7903 C.ar    1  UNL1        0.1133
      2 C         140.8211  139.4639  164.2751 C.ar    1  UNL1        0.0189
      3 C         140.7806  139.0712  162.8280 C.ar    1  UNL1        0.0041
      4 C         139.8144  139.7404  161.8960 C.ar    1  UNL1        0.0333
      5 C         139.5477  139.5641  160.4305 C.ar    1  UNL1        0.0138
      6 C         138.4572  140.5170  160.0399 C.ar    1  UNL1        0.1348
      7 O         138.0500  141.2823  161.2640 O.2     1  UNL1       -0.4567
      8 C         138.8888  140.8023  162.4112 C.ar    1  UNL1        0.1459
      9 C         138.9293  141.1950  163.8583 C.ar    1  UNL1        0.0562
     10 C         137.9759  140.5648  158.6200 C.3     1  UNL1        0.1338
     11 N         138.5852  139.6596  157.5908 N.3     1  UNL1       -0.2908
     12 C         139.6757  138.7067  157.9814 C.3     1  UNL1        0.0737
     13 C         140.1570  138.6589  159.4012 C.3     1  UNL1        0.0463
     14 H         138.9666  140.2599  156.8596 H       1  UNL1        0.1237
     15 O         138.9837  139.8069  166.5657 O.2     1  UNL1       -0.1642
     16 S         139.9360  140.9185  166.2374 S.O2    1  UNL1        0.0276
     17 O         140.8882  142.0300  165.9091 O.2     1  UNL1       -0.1642
     18 C         139.9765  141.3112  167.6846 C.ar    1  UNL1        0.1125
     19 C         139.5960  140.3179  168.7422 C.ar    1  UNL1        0.0189
     20 C         139.6365  140.7106  170.1892 C.ar    1  UNL1        0.0036
     21 C         140.0575  142.0965  170.5787 C.ar    1  UNL1        0.0297
     22 C         140.4380  143.0898  169.5211 C.ar    1  UNL1        0.1414
     23 F         140.8590  144.4759  169.9106 F       1  UNL1       -0.2041
     24 C         140.3975  142.6971  168.0740 C.ar    1  UNL1        0.0484
@<TRIPOS>BOND
     1    15    16    2
     2    16    17    2
     3    16    18    1
     4    18    19   ar
     5    19    20   ar
     6    20    21   ar
     7    21    22   ar
     8    22    23    1
     9    22    24   ar
    10    16     1    1
    11     1     2   ar
    12     2     3   ar
    13     3     4   ar
    14     4     5   ar
    15     5     6   ar
    16     6     7   ar
    17     7     8   ar
    18     8     9   ar
    19     6    10    1
    20    10    11    1
    21    11    12    1
    22    12    13    1
    23    24    18   ar
    24     9     1   ar
    25     8     4   ar
    26    13     5    1
    27    11    14    1
@<TRIPOS>MOLECULE
*****
 24 27 0 0 0
SMALL
GASTEIGER

@<TRIPOS>ATOM
      1 C         141.3761  142.3285  164.6806 C.ar    1  UNL1        0.1133
      2 C         140.4980  143.5118  164.4002 C.ar    1  UNL1        0.0189
      3 C         140.5608  144.1929  163.0652 C.ar    1  UNL1        0.0041
      4 C         141.5019  143.6907  162.0106 C.ar    1  UNL1        0.0333
      5 C         141.7818  144.1547  160.6118 C.ar    1  UNL1        0.0138
      6 C         142.8329  143.2581  160.0277 C.ar    1  UNL1        0.1348
      7 O         143.2027  142.2400  161.0655 O.2     1  UNL1       -0.4567
      8 C         142.3801  142.5074  162.2910 C.ar    1  UNL1        0.1459
      9 C         142.3172  141.8263  163.6259 C.ar    1  UNL1        0.0562
     10 C         143.3176  143.4845  158.6264 C.3     1  UNL1        0.1338
     11 N         142.7511  144.6075  157.8092 N.3     1  UNL1       -0.2908
     12 C         141.6999  145.5041  158.3933 C.3     1  UNL1        0.0737
     13 C         141.2153  145.2777  159.7946 C.3     1  UNL1        0.0463
     14 H         142.3478  144.1878  156.9715 H       1  UNL1        0.1237
     15 O         140.5824  142.8279  166.5834 O.2     1  UNL1       -0.1642
     16 S         141.3132  141.6474  166.0155 S.O2    1  UNL1        0.0276
     17 O         142.0440  140.4669  165.4477 O.2     1  UNL1       -0.1642
     18 C         141.2503  140.9663  167.3505 C.ar    1  UNL1        0.1125
     19 C         142.4688  140.2901  167.9056 C.ar    1  UNL1        0.0189
     20 C         142.4059  139.6090  169.2405 C.ar    1  UNL1        0.0036
     21 C         141.1246  139.6041  170.0204 C.ar    1  UNL1        0.0297
     22 C         139.9062  140.2803  169.4653 C.ar    1  UNL1        0.1414
     23 F         138.6248  140.2754  170.2452 F       1  UNL1       -0.2041
     24 C         139.9691  140.9614  168.1303 C.ar    1  UNL1        0.0484
@<TRIPOS>BOND
     1    15    16    2
     2    16    17    2
     3    16    18    1
     4    18    19   ar
     5    19    20   ar
     6    20    21   ar
     7    21    22   ar
     8    22    23    1
     9    22    24   ar
    10    16     1    1
    11     1     2   ar
    12     2     3   ar
    13     3     4   ar
    14     4     5   ar
    15     5     6   ar
    16     6     7   ar
    17     7     8   ar
    18     8     9   ar
    19     6    10    1
    20    10    11    1
    21    11    12    1
    22    12    13    1
    23    24    18   ar
    24     9     1   ar
    25     8     4   ar
    26    13     5    1
    27    11    14    1
@<TRIPOS>MOLECULE
*****
 24 27 0 0 0
SMALL
GASTEIGER

@<TRIPOS>ATOM
      1 C         141.3630  143.3126  164.2180 C.ar    1  UNL1        0.1133
      2 C         140.0329  143.5120  164.8820 C.ar    1  UNL1        0.0189
      3 C         139.8743  143.2234  166.3455 C.ar    1  UNL1        0.0041
      4 C         141.0460  142.7355  167.1449 C.ar    1  UNL1        0.0333
      5 C         141.1912  142.3708  168.5926 C.ar    1  UNL1        0.0138
      6 C         142.6112  141.9460  168.8234 C.ar    1  UNL1        0.1348
      7 O         143.3435  142.0482  167.5183 O.2     1  UNL1       -0.4567
      8 C         142.3762  142.5362  166.4809 C.ar    1  UNL1        0.1459
      9 C         142.5347  142.8247  165.0175 C.ar    1  UNL1        0.0562
     10 C         143.0539  141.5210  170.1921 C.3     1  UNL1        0.1338
     11 N         142.0766  141.5208  171.3300 N.3     1  UNL1       -0.2908
     12 C         140.6567  141.9456  171.0992 C.3     1  UNL1        0.0737
     13 C         140.2140  142.3706  169.7305 C.3     1  UNL1        0.0463
     14 H         142.4570  142.1409  172.0449 H       1  UNL1        0.1237
     15 O         140.4011  144.5957  162.8293 O.2     1  UNL1       -0.1642
     16 S         141.5216  143.6012  162.7546 S.O2    1  UNL1        0.0276
     17 O         142.6420  142.6067  162.6799 O.2     1  UNL1       -0.1642
     18 C         141.6801  143.8898  161.2911 C.ar    1  UNL1        0.1125
     19 C         142.7522  143.1984  160.5022 C.ar    1  UNL1        0.0189
     20 C         142.9107  143.4869  159.0389 C.ar    1  UNL1        0.0036
     21 C         141.9971  144.4668  158.3644 C.ar    1  UNL1        0.0297
     22 C         140.9250  145.1582  159.1533 C.ar    1  UNL1        0.1414
     23 F         140.0113  146.1383  158.4788 F       1  UNL1       -0.2041
     24 C         140.7664  144.8697  160.6167 C.ar    1  UNL1        0.0484
@<TRIPOS>BOND
     1    15    16    2
     2    16    17    2
     3    16    18    1
     4    18    19   ar
     5    19    20   ar
     6    20    21   ar
     7    21    22   ar
     8    22    23    1
     9    22    24   ar
    10    16     1    1
    11     1     2   ar
    12     2     3   ar
    13     3     4   ar
    14     4     5   ar
    15     5     6   ar
    16     6     7   ar
    17     7     8   ar
    18     8     9   ar
    19     6    10    1
    20    10    11    1
    21    11    12    1
    22    12    13    1
    23    24    18   ar
    24     9     1   ar
    25     8     4   ar
    26    13     5    1
    27    11    14    1
@<TRIPOS>MOLECULE
*****
 24 27 0 0 0
SMALL
GASTEIGER

@<TRIPOS>ATOM
      1 C         141.8814  139.2590  164.4580 C.ar    1  UNL1        0.1133
      2 C         141.2787  138.0709  163.7688 C.ar    1  UNL1        0.0189
      3 C         141.5015  137.8630  162.3000 C.ar    1  UNL1        0.0041
      4 C         142.3270  138.8432  161.5205 C.ar    1  UNL1        0.0333
      5 C         142.7163  138.9001  160.0730 C.ar    1  UNL1        0.0138
      6 C         143.5597  140.1234  159.8676 C.ar    1  UNL1        0.1348
      7 O         143.6916  140.8225  161.1882 O.2     1  UNL1       -0.4567
      8 C         142.9297  140.0313  162.2097 C.ar    1  UNL1        0.1459
      9 C         142.7070  140.2392  163.6785 C.ar    1  UNL1        0.0562
     10 C         144.0986  140.4426  158.5047 C.3     1  UNL1        0.1338
     11 N         143.7942  139.5386  157.3472 N.3     1  UNL1       -0.2908
     12 C         142.9508  138.3153  157.5526 C.3     1  UNL1        0.0737
     13 C         142.4118  137.9960  158.9155 C.3     1  UNL1        0.0463
     14 H         144.6903  139.2199  156.9788 H       1  UNL1        0.1237
     15 O         142.8025  138.5454  166.2307 O.2     1  UNL1       -0.1642
     16 S         141.6587  139.4669  165.9267 S.O2    1  UNL1        0.0276
     17 O         140.5148  140.3885  165.6228 O.2     1  UNL1       -0.1642
     18 C         141.4359  139.6749  167.3955 C.ar    1  UNL1        0.1125
     19 C         142.5744  139.5080  168.3577 C.ar    1  UNL1        0.0189
     20 C         142.3516  139.7159  169.8264 C.ar    1  UNL1        0.0036
     21 C         140.9904  140.0907  170.3328 C.ar    1  UNL1        0.0297
     22 C         139.8519  140.2576  169.3706 C.ar    1  UNL1        0.1414
     23 F         138.4906  140.6324  169.8770 F       1  UNL1       -0.2041
     24 C         140.0747  140.0496  167.9018 C.ar    1  UNL1        0.0484
@<TRIPOS>BOND
     1    15    16    2
     2    16    17    2
     3    16    18    1
     4    18    19   ar
     5    19    20   ar
     6    20    21   ar
     7    21    22   ar
     8    22    23    1
     9    22    24   ar
    10    16     1    1
    11     1     2   ar
    12     2     3   ar
    13     3     4   ar
    14     4     5   ar
    15     5     6   ar
    16     6     7   ar
    17     7     8   ar
    18     8     9   ar
    19     6    10    1
    20    10    11    1
    21    11    12    1
    22    12    13    1
    23    24    18   ar
    24     9     1   ar
    25     8     4   ar
    26    13     5    1
    27    11    14    1
@<TRIPOS>MOLECULE
*****
 24 27 0 0 0
SMALL
GASTEIGER

@<TRIPOS>ATOM
      1 C         142.0266  142.7000  165.2692 C.ar    1  UNL1        0.1133
      2 C         143.0613  141.9110  164.5230 C.ar    1  UNL1        0.0189
      3 C         143.2603  142.1360  163.0534 C.ar    1  UNL1        0.0041
      4 C         142.4247  143.1500  162.3299 C.ar    1  UNL1        0.0333
      5 C         142.3948  143.5864  160.8951 C.ar    1  UNL1        0.0138
      6 C         141.3417  144.6453  160.7545 C.ar    1  UNL1        0.1348
      7 O         140.7206  144.8631  162.1024 O.2     1  UNL1       -0.4567
      8 C         141.3899  143.9390  163.0761 C.ar    1  UNL1        0.1459
      9 C         141.1909  143.7140  164.5457 C.ar    1  UNL1        0.0562
     10 C         141.0843  145.2742  159.4173 C.3     1  UNL1        0.1338
     11 N         141.8801  144.8443  158.2207 N.3     1  UNL1       -0.2908
     12 C         142.9332  143.7855  158.3613 C.3     1  UNL1        0.0737
     13 C         143.1906  143.1566  159.6985 C.3     1  UNL1        0.0463
     14 H         142.3464  145.6777  157.8623 H       1  UNL1        0.1237
     15 O         143.2079  141.8963  166.8372 O.2     1  UNL1       -0.1642
     16 S         141.8275  142.4750  166.7388 S.O2    1  UNL1        0.0276
     17 O         140.4471  143.0538  166.6404 O.2     1  UNL1       -0.1642
     18 C         141.6285  142.2501  168.2084 C.ar    1  UNL1        0.1125
     19 C         142.5471  141.3310  168.9577 C.ar    1  UNL1        0.0189
     20 C         142.3481  141.1061  170.4272 C.ar    1  UNL1        0.0036
     21 C         141.2304  141.8001  171.1476 C.ar    1  UNL1        0.0297
     22 C         140.3117  142.7192  170.3984 C.ar    1  UNL1        0.1414
     23 F         139.1940  143.4133  171.1187 F       1  UNL1       -0.2041
     24 C         140.5108  142.9442  168.9287 C.ar    1  UNL1        0.0484
@<TRIPOS>BOND
     1    15    16    2
     2    16    17    2
     3    16    18    1
     4    18    19   ar
     5    19    20   ar
     6    20    21   ar
     7    21    22   ar
     8    22    23    1
     9    22    24   ar
    10    16     1    1
    11     1     2   ar
    12     2     3   ar
    13     3     4   ar
    14     4     5   ar
    15     5     6   ar
    16     6     7   ar
    17     7     8   ar
    18     8     9   ar
    19     6    10    1
    20    10    11    1
    21    11    12    1
    22    12    13    1
    23    24    18   ar
    24     9     1   ar
    25     8     4   ar
    26    13     5    1
    27    11    14    1
@<TRIPOS>MOLECULE
*****
 24 27 0 0 0
SMALL
GASTEIGER

@<TRIPOS>ATOM
      1 C         140.2036  139.6543  164.4879 C.ar    1  UNL1        0.1133
      2 C         138.9500  139.6958  165.3106 C.ar    1  UNL1        0.0189
      3 C         139.0340  139.8789  166.7970 C.ar    1  UNL1        0.0041
      4 C         140.3717  140.0205  167.4608 C.ar    1  UNL1        0.0333
      5 C         140.7649  140.2117  168.8957 C.ar    1  UNL1        0.0138
      6 C         142.2615  140.2883  168.9598 C.ar    1  UNL1        0.1348
      7 O         142.7933  140.1445  167.5646 O.2     1  UNL1       -0.4567
      8 C         141.6253  139.9790  166.6381 C.ar    1  UNL1        0.1459
      9 C         141.5412  139.7959  165.1517 C.ar    1  UNL1        0.0562
     10 C         142.9468  140.4791  170.2804 C.3     1  UNL1        0.1338
     11 N         142.1354  140.5933  171.5368 N.3     1  UNL1       -0.2908
     12 C         140.6388  140.5166  171.4726 C.3     1  UNL1        0.0737
     13 C         139.9535  140.3258  170.1520 C.3     1  UNL1        0.0463
     14 H         142.3664  141.4942  171.9556 H       1  UNL1        0.1237
     15 O         138.6546  139.7905  163.0450 O.2     1  UNL1       -0.1642
     16 S         140.1195  139.4712  163.0015 S.O2    1  UNL1        0.0276
     17 O         141.5845  139.1519  162.9580 O.2     1  UNL1       -0.1642
     18 C         140.0355  139.2881  161.5151 C.ar    1  UNL1        0.1125
     19 C         138.8232  139.7603  160.7686 C.ar    1  UNL1        0.0189
     20 C         138.7392  139.5772  159.2823 C.ar    1  UNL1        0.0036
     21 C         139.8674  138.9218  158.5423 C.ar    1  UNL1        0.0297
     22 C         141.0797  138.4496  159.2888 C.ar    1  UNL1        0.1414
     23 F         142.2081  137.7942  158.5489 F       1  UNL1       -0.2041
     24 C         141.1638  138.6327  160.7752 C.ar    1  UNL1        0.0484
@<TRIPOS>BOND
     1    15    16    2
     2    16    17    2
     3    16    18    1
     4    18    19   ar
     5    19    20   ar
     6    20    21   ar
     7    21    22   ar
     8    22    23    1
     9    22    24   ar
    10    16     1    1
    11     1     2   ar
    12     2     3   ar
    13     3     4   ar
    14     4     5   ar
    15     5     6   ar
    16     6     7   ar
    17     7     8   ar
    18     8     9   ar
    19     6    10    1
    20    10    11    1
    21    11    12    1
    22    12    13    1
    23    24    18   ar
    24     9     1   ar
    25     8     4   ar
    26    13     5    1
    27    11    14    1
