@<TRIPOS>MOLECULE
*****
 27 29 0 0 0
SMALL
GASTEIGER

@<TRIPOS>ATOM
      1 C         140.2805  143.2836  166.2327 C.ar    1  UNL1       -0.0001
      2 C         139.0471  144.1330  166.1475 C.ar    1  UNL1       -0.0003
      3 C         138.7113  144.8416  164.8688 C.ar    1  UNL1       -0.0031
      4 C         139.6088  144.7007  163.6752 C.ar    1  UNL1       -0.0071
      5 C         140.8422  143.8514  163.7605 C.ar    1  UNL1       -0.0071
      6 C         141.1780  143.1428  165.0392 C.ar    1  UNL1       -0.0031
      7 C         141.5318  143.9006  162.4292 C.3     1  UNL1        0.1218
      8 N         140.7246  144.7804  161.5213 N.3     1  UNL1       -0.1502
      9 C         139.5361  145.2749  162.2914 C.3     1  UNL1        0.1218
     10 S         141.0489  145.1082  160.0939 S.O2    1  UNL1        0.0487
     11 O         139.7959  145.9272  159.9973 O.2     1  UNL1       -0.1569
     12 O         142.3019  144.2892  160.1906 O.2     1  UNL1       -0.1569
     13 C         141.3733  145.4359  158.6666 C.3     1  UNL1        0.1955
     14 C         140.3394  145.2377  157.5980 C.ar    1  UNL1        0.0029
     15 C         139.7030  143.8923  157.4105 C.ar    1  UNL1       -0.0025
     16 C         138.6691  143.6941  156.3420 C.ar    1  UNL1       -0.0003
     17 C         138.2717  144.8411  155.4609 C.ar    1  UNL1       -0.0000
     18 C         138.9081  146.1864  155.6483 C.ar    1  UNL1       -0.0003
     19 C         139.9420  146.3847  156.7169 C.ar    1  UNL1       -0.0025
     20 C         140.2911  143.2124  168.8298 C.2     1  UNL1        0.0598
     21 C         140.6163  142.5751  167.5115 C.2     1  UNL1        0.0047
     22 O         139.7107  141.4422  170.6407 O.2     1  UNL1       -0.2681
     23 C         140.6270  142.5039  170.1085 C.2     1  UNL1        0.2679
     24 N         141.8791  142.8571  170.8551 N.am    1  UNL1       -0.1934
     25 O         142.2150  142.1486  172.1339 O.3     1  UNL1       -0.2949
     26 H         142.4805  143.5539  170.5059 H       1  UNL1        0.1825
     27 H         141.5241  141.4978  172.3340 H       1  UNL1        0.2414
@<TRIPOS>BOND
     1    22    23    2
     2    23    20    1
     3    20    21    2
     4    21     1    1
     5     1     2   ar
     6     2     3   ar
     7     3     4   ar
     8     4     5   ar
     9     5     6   ar
    10     5     7    1
    11     7     8    1
    12     8    10    1
    13    10    11    2
    14    10    12    2
    15    10    13    1
    16    13    14    1
    17    14    15   ar
    18    15    16   ar
    19    16    17   ar
    20    17    18   ar
    21    18    19   ar
    22     8     9    1
    23    23    24   am
    24    24    25    1
    25     6     1   ar
    26    19    14   ar
    27     9     4    1
    28    24    26    1
    29    25    27    1
@<TRIPOS>MOLECULE
*****
 27 29 0 0 0
SMALL
GASTEIGER

@<TRIPOS>ATOM
      1 C         142.3221  139.1255  169.6018 C.ar    1  UNL1       -0.0001
      2 C         141.0025  139.6646  170.0685 C.ar    1  UNL1       -0.0003
      3 C         140.0610  140.2968  169.0867 C.ar    1  UNL1       -0.0031
      4 C         140.4392  140.3898  167.6381 C.ar    1  UNL1       -0.0071
      5 C         141.7589  139.8507  167.1715 C.ar    1  UNL1       -0.0071
      6 C         142.7003  139.2185  168.1533 C.ar    1  UNL1       -0.0031
      7 C         141.8575  140.0823  165.6927 C.3     1  UNL1        0.1218
      8 N         140.5987  140.7646  165.2455 N.3     1  UNL1       -0.1502
      9 C         139.7222  140.9546  166.4478 C.3     1  UNL1        0.1218
     10 S         140.2735  141.1833  163.8422 S.O2    1  UNL1        0.0487
     11 O         138.8402  140.7977  164.0594 O.2     1  UNL1       -0.1569
     12 O         141.7067  141.5689  163.6252 O.2     1  UNL1       -0.1569
     13 C         139.9483  141.6020  162.4391 C.3     1  UNL1        0.1955
     14 C         139.9668  143.0549  162.0667 C.ar    1  UNL1        0.0029
     15 C         140.7504  143.5132  160.8724 C.ar    1  UNL1       -0.0025
     16 C         140.7689  144.9660  160.5000 C.ar    1  UNL1       -0.0003
     17 C         140.0039  145.9607  161.3218 C.ar    1  UNL1       -0.0000
     18 C         139.2203  145.5026  162.5159 C.ar    1  UNL1       -0.0003
     19 C         139.2018  144.0496  162.8884 C.ar    1  UNL1       -0.0025
     20 C         143.6042  137.0373  170.4654 C.2     1  UNL1        0.0598
     21 C         143.2636  138.4933  170.5837 C.2     1  UNL1        0.0047
     22 O         145.7980  137.1232  171.8546 O.2     1  UNL1       -0.2681
     23 C         144.5456  136.4051  171.4472 C.2     1  UNL1        0.2679
     24 N         144.2347  135.0548  172.0218 N.am    1  UNL1       -0.1934
     25 O         145.1761  134.4226  173.0036 O.3     1  UNL1       -0.2949
     26 H         143.4127  134.5835  171.7544 H       1  UNL1        0.1825
     27 H         145.9293  135.0144  173.1564 H       1  UNL1        0.2414
@<TRIPOS>BOND
     1    22    23    2
     2    23    20    1
     3    20    21    2
     4    21     1    1
     5     1     2   ar
     6     2     3   ar
     7     3     4   ar
     8     4     5   ar
     9     5     6   ar
    10     5     7    1
    11     7     8    1
    12     8    10    1
    13    10    11    2
    14    10    12    2
    15    10    13    1
    16    13    14    1
    17    14    15   ar
    18    15    16   ar
    19    16    17   ar
    20    17    18   ar
    21    18    19   ar
    22     8     9    1
    23    23    24   am
    24    24    25    1
    25     6     1   ar
    26    19    14   ar
    27     9     4    1
    28    24    26    1
    29    25    27    1
@<TRIPOS>MOLECULE
*****
 27 29 0 0 0
SMALL
GASTEIGER

@<TRIPOS>ATOM
      1 C         138.6170  139.2997  166.0492 C.ar    1  UNL1       -0.0001
      2 C         138.7821  138.0072  165.3063 C.ar    1  UNL1       -0.0003
      3 C         138.8320  138.0049  163.8072 C.ar    1  UNL1       -0.0031
      4 C         138.7168  139.2951  163.0509 C.ar    1  UNL1       -0.0071
      5 C         138.5517  140.5877  163.7938 C.ar    1  UNL1       -0.0071
      6 C         138.5018  140.5900  165.2930 C.ar    1  UNL1       -0.0031
      7 C         138.4648  141.6944  162.7850 C.3     1  UNL1        0.1218
      8 N         138.5762  141.0858  161.4186 N.3     1  UNL1       -0.1502
      9 C         138.7320  139.6029  161.5829 C.3     1  UNL1        0.1218
     10 S         138.5385  141.8294  160.1163 S.O2    1  UNL1        0.0487
     11 O         139.3776  140.7602  159.4815 O.2     1  UNL1       -0.1569
     12 O         137.6995  142.8985  160.7512 O.2     1  UNL1       -0.1569
     13 C         138.5008  142.5730  158.8142 C.3     1  UNL1        0.1955
     14 C         139.5396  143.6124  158.5138 C.ar    1  UNL1        0.0029
     15 C         140.5044  144.0388  159.5804 C.ar    1  UNL1       -0.0025
     16 C         141.5433  145.0783  159.2800 C.ar    1  UNL1       -0.0003
     17 C         141.6174  145.6914  157.9131 C.ar    1  UNL1       -0.0000
     18 C         140.6527  145.2651  156.8465 C.ar    1  UNL1       -0.0003
     19 C         139.6138  144.2256  157.1469 C.ar    1  UNL1       -0.0025
     20 C         139.5001  140.1801  168.3285 C.2     1  UNL1        0.0598
     21 C         138.5671  139.3021  167.5484 C.2     1  UNL1        0.0047
     22 O         138.1796  139.8173  170.5364 O.2     1  UNL1       -0.2681
     23 C         139.4502  140.1824  169.8277 C.2     1  UNL1        0.2679
     24 N         140.6710  140.5498  170.6182 N.am    1  UNL1       -0.1934
     25 O         140.6211  140.5522  172.1173 O.3     1  UNL1       -0.2949
     26 H         141.5049  140.7895  170.1530 H       1  UNL1        0.1825
     27 H         139.7334  140.2948  172.4117 H       1  UNL1        0.2414
@<TRIPOS>BOND
     1    22    23    2
     2    23    20    1
     3    20    21    2
     4    21     1    1
     5     1     2   ar
     6     2     3   ar
     7     3     4   ar
     8     4     5   ar
     9     5     6   ar
    10     5     7    1
    11     7     8    1
    12     8    10    1
    13    10    11    2
    14    10    12    2
    15    10    13    1
    16    13    14    1
    17    14    15   ar
    18    15    16   ar
    19    16    17   ar
    20    17    18   ar
    21    18    19   ar
    22     8     9    1
    23    23    24   am
    24    24    25    1
    25     6     1   ar
    26    19    14   ar
    27     9     4    1
    28    24    26    1
    29    25    27    1
@<TRIPOS>MOLECULE
*****
 27 29 0 0 0
SMALL
GASTEIGER

@<TRIPOS>ATOM
      1 C         139.8853  140.3874  167.1770 C.ar    1  UNL1       -0.0001
      2 C         138.7436  139.4343  166.9819 C.ar    1  UNL1       -0.0003
      3 C         138.0392  139.3684  165.6592 C.ar    1  UNL1       -0.0031
      4 C         138.4765  140.2556  164.5316 C.ar    1  UNL1       -0.0071
      5 C         139.6182  141.2087  164.7266 C.ar    1  UNL1       -0.0071
      6 C         140.3226  141.2746  166.0493 C.ar    1  UNL1       -0.0031
      7 C         139.8244  141.9543  163.4414 C.3     1  UNL1        0.1218
      8 N         138.8101  141.4619  162.4521 N.3     1  UNL1       -0.1502
      9 C         137.9771  140.4121  163.1259 C.3     1  UNL1        0.1218
     10 S         138.6559  141.9361  161.0373 S.O2    1  UNL1        0.0487
     11 O         137.6590  142.9616  161.4897 O.2     1  UNL1       -0.1569
     12 O         139.6527  140.9106  160.5850 O.2     1  UNL1       -0.1569
     13 C         138.5017  142.4102  159.6227 C.3     1  UNL1        0.1955
     14 C         139.4406  143.4417  159.0709 C.ar    1  UNL1        0.0029
     15 C         140.2942  144.2527  160.0004 C.ar    1  UNL1       -0.0025
     16 C         141.2330  145.2842  159.4486 C.ar    1  UNL1       -0.0003
     17 C         141.3183  145.5048  157.9674 C.ar    1  UNL1       -0.0000
     18 C         140.4648  144.6940  157.0379 C.ar    1  UNL1       -0.0003
     19 C         139.5259  143.6624  157.5897 C.ar    1  UNL1       -0.0025
     20 C         140.0191  141.2811  169.6128 C.2     1  UNL1        0.0598
     21 C         140.5897  140.4533  168.4996 C.2     1  UNL1        0.0047
     22 O         140.2577  142.3110  171.9860 O.2     1  UNL1       -0.2681
     23 C         140.7235  141.3470  170.9355 C.2     1  UNL1        0.2679
     24 N         141.8937  140.4489  171.2076 N.am    1  UNL1       -0.1934
     25 O         142.5981  140.5148  172.5302 O.3     1  UNL1       -0.2949
     26 H         142.1995  139.8162  170.5180 H       1  UNL1        0.1825
     27 H         142.1741  141.1845  173.0894 H       1  UNL1        0.2414
@<TRIPOS>BOND
     1    22    23    2
     2    23    20    1
     3    20    21    2
     4    21     1    1
     5     1     2   ar
     6     2     3   ar
     7     3     4   ar
     8     4     5   ar
     9     5     6   ar
    10     5     7    1
    11     7     8    1
    12     8    10    1
    13    10    11    2
    14    10    12    2
    15    10    13    1
    16    13    14    1
    17    14    15   ar
    18    15    16   ar
    19    16    17   ar
    20    17    18   ar
    21    18    19   ar
    22     8     9    1
    23    23    24   am
    24    24    25    1
    25     6     1   ar
    26    19    14   ar
    27     9     4    1
    28    24    26    1
    29    25    27    1
@<TRIPOS>MOLECULE
*****
 27 29 0 0 0
SMALL
GASTEIGER

@<TRIPOS>ATOM
      1 C         141.4429  141.9321  166.8463 C.ar    1  UNL1       -0.0001
      2 C         142.8943  142.1693  166.5512 C.ar    1  UNL1       -0.0003
      3 C         143.2963  142.9050  165.3074 C.ar    1  UNL1       -0.0031
      4 C         142.2469  143.4035  164.3587 C.ar    1  UNL1       -0.0071
      5 C         140.7955  143.1664  164.6537 C.ar    1  UNL1       -0.0071
      6 C         140.3935  142.4306  165.8976 C.ar    1  UNL1       -0.0031
      7 C         139.9914  143.7708  163.5410 C.3     1  UNL1        0.1218
      8 N         140.9459  144.3816  162.5582 N.3     1  UNL1       -0.1502
      9 C         142.3399  144.1546  163.0636 C.3     1  UNL1        0.1218
     10 S         140.5721  145.0942  161.2923 S.O2    1  UNL1        0.0487
     11 O         139.1533  145.1960  161.7685 O.2     1  UNL1       -0.1569
     12 O         141.9909  144.9924  160.8162 O.2     1  UNL1       -0.1569
     13 C         140.1984  145.8068  160.0264 C.3     1  UNL1        0.1955
     14 C         140.3240  145.1060  158.7062 C.ar    1  UNL1        0.0029
     15 C         141.0528  145.7656  157.5731 C.ar    1  UNL1       -0.0025
     16 C         141.1783  145.0648  156.2529 C.ar    1  UNL1       -0.0003
     17 C         140.5750  143.7043  156.0657 C.ar    1  UNL1       -0.0000
     18 C         139.8462  143.0446  157.1986 C.ar    1  UNL1       -0.0003
     19 C         139.7206  143.7455  158.5189 C.ar    1  UNL1       -0.0025
     20 C         140.8203  141.9492  169.3686 C.2     1  UNL1        0.0598
     21 C         141.0409  141.1964  168.0901 C.2     1  UNL1        0.0047
     22 O         140.4653  141.9063  171.9419 O.2     1  UNL1       -0.2681
     23 C         140.4183  141.2134  170.6124 C.2     1  UNL1        0.2679
     24 N         139.9693  139.7847  170.5267 N.am    1  UNL1       -0.1934
     25 O         139.5673  139.0490  171.7705 O.3     1  UNL1       -0.2949
     26 H         139.9384  139.3300  169.6541 H       1  UNL1        0.1825
     27 H         139.6552  139.6372  172.5368 H       1  UNL1        0.2414
@<TRIPOS>BOND
     1    22    23    2
     2    23    20    1
     3    20    21    2
     4    21     1    1
     5     1     2   ar
     6     2     3   ar
     7     3     4   ar
     8     4     5   ar
     9     5     6   ar
    10     5     7    1
    11     7     8    1
    12     8    10    1
    13    10    11    2
    14    10    12    2
    15    10    13    1
    16    13    14    1
    17    14    15   ar
    18    15    16   ar
    19    16    17   ar
    20    17    18   ar
    21    18    19   ar
    22     8     9    1
    23    23    24   am
    24    24    25    1
    25     6     1   ar
    26    19    14   ar
    27     9     4    1
    28    24    26    1
    29    25    27    1
@<TRIPOS>MOLECULE
*****
 27 29 0 0 0
SMALL
GASTEIGER

@<TRIPOS>ATOM
      1 C         139.1191  140.3963  169.7195 C.ar    1  UNL1       -0.0001
      2 C         139.6273  141.7377  170.1580 C.ar    1  UNL1       -0.0003
      3 C         140.3450  142.6232  169.1829 C.ar    1  UNL1       -0.0031
      4 C         140.5545  142.1673  167.7693 C.ar    1  UNL1       -0.0071
      5 C         140.0462  140.8259  167.3308 C.ar    1  UNL1       -0.0071
      6 C         139.3285  139.9404  168.3059 C.ar    1  UNL1       -0.0031
      7 C         140.3983  140.6472  165.8836 C.3     1  UNL1        0.1218
      8 N         141.1240  141.8782  165.4278 N.3     1  UNL1       -0.1502
      9 C         141.2206  142.8177  166.5932 C.3     1  UNL1        0.1218
     10 S         141.6594  142.1263  164.0486 S.O2    1  UNL1        0.0487
     11 O         140.4875  141.3961  163.4624 O.2     1  UNL1       -0.1569
     12 O         142.8312  142.8564  164.6348 O.2     1  UNL1       -0.1569
     13 C         142.1947  142.3743  162.6696 C.3     1  UNL1        0.1955
     14 C         141.5091  143.3540  161.7639 C.ar    1  UNL1        0.0029
     15 C         141.2113  142.9796  160.3422 C.ar    1  UNL1       -0.0025
     16 C         140.5257  143.9593  159.4366 C.ar    1  UNL1       -0.0003
     17 C         140.1379  145.3133  159.9526 C.ar    1  UNL1       -0.0000
     18 C         140.4357  145.6876  161.3742 C.ar    1  UNL1       -0.0003
     19 C         141.1213  144.7080  162.2800 C.ar    1  UNL1       -0.0025
     20 C         136.9623  139.1551  170.4661 C.2     1  UNL1        0.0598
     21 C         138.4014  139.5108  170.6946 C.2     1  UNL1        0.0047
     22 O         136.5743  136.8080  171.5103 O.2     1  UNL1       -0.2681
     23 C         136.2446  138.2696  171.4412 C.2     1  UNL1        0.2679
     24 N         135.1971  138.8458  172.3472 N.am    1  UNL1       -0.1934
     25 O         134.4794  137.9603  173.3223 O.3     1  UNL1       -0.2949
     26 H         134.9806  139.8052  172.3018 H       1  UNL1        0.1825
     27 H         134.8095  137.0521  173.2379 H       1  UNL1        0.2414
@<TRIPOS>BOND
     1    22    23    2
     2    23    20    1
     3    20    21    2
     4    21     1    1
     5     1     2   ar
     6     2     3   ar
     7     3     4   ar
     8     4     5   ar
     9     5     6   ar
    10     5     7    1
    11     7     8    1
    12     8    10    1
    13    10    11    2
    14    10    12    2
    15    10    13    1
    16    13    14    1
    17    14    15   ar
    18    15    16   ar
    19    16    17   ar
    20    17    18   ar
    21    18    19   ar
    22     8     9    1
    23    23    24   am
    24    24    25    1
    25     6     1   ar
    26    19    14   ar
    27     9     4    1
    28    24    26    1
    29    25    27    1
@<TRIPOS>MOLECULE
*****
 27 29 0 0 0
SMALL
GASTEIGER

@<TRIPOS>ATOM
      1 C         140.4236  143.0258  166.1388 C.ar    1  UNL1       -0.0001
      2 C         139.2683  143.9815  166.1821 C.ar    1  UNL1       -0.0003
      3 C         138.9285  144.8026  164.9737 C.ar    1  UNL1       -0.0031
      4 C         139.7439  144.6680  163.7220 C.ar    1  UNL1       -0.0071
      5 C         140.8992  143.7124  163.6787 C.ar    1  UNL1       -0.0071
      6 C         141.2391  142.8913  164.8871 C.ar    1  UNL1       -0.0031
      7 C         141.5175  143.7940  162.3144 C.3     1  UNL1        0.1218
      8 N         140.7442  144.8001  161.5146 N.3     1  UNL1       -0.1502
      9 C         139.6481  145.3403  162.3845 C.3     1  UNL1        0.1218
     10 S         141.0188  145.1965  160.0941 S.O2    1  UNL1        0.0487
     11 O         142.2990  144.4153  160.1236 O.2     1  UNL1       -0.1569
     12 O         139.7386  145.9777  160.0647 O.2     1  UNL1       -0.1569
     13 C         141.2933  145.5929  158.6738 C.3     1  UNL1        0.1955
     14 C         140.2782  145.3094  157.6065 C.ar    1  UNL1        0.0029
     15 C         139.8297  146.4069  156.6875 C.ar    1  UNL1       -0.0025
     16 C         138.8146  146.1234  155.6202 C.ar    1  UNL1       -0.0003
     17 C         138.2480  144.7425  155.4718 C.ar    1  UNL1       -0.0000
     18 C         138.6965  143.6451  156.3907 C.ar    1  UNL1       -0.0003
     19 C         139.7116  143.9285  157.4581 C.ar    1  UNL1       -0.0025
     20 C         140.9094  142.8653  168.6860 C.2     1  UNL1        0.0598
     21 C         140.7635  142.2047  167.3472 C.2     1  UNL1        0.0047
     22 O         142.6843  141.8050  170.2593 O.2     1  UNL1       -0.2681
     23 C         141.2492  142.0442  169.8944 C.2     1  UNL1        0.2679
     24 N         140.1538  141.4622  170.7380 N.am    1  UNL1       -0.1934
     25 O         140.4937  140.6411  171.9464 O.3     1  UNL1       -0.2949
     26 H         139.2119  141.6191  170.4985 H       1  UNL1        0.1825
     27 H         141.4577  140.5848  172.0384 H       1  UNL1        0.2414
@<TRIPOS>BOND
     1    22    23    2
     2    23    20    1
     3    20    21    2
     4    21     1    1
     5     1     2   ar
     6     2     3   ar
     7     3     4   ar
     8     4     5   ar
     9     5     6   ar
    10     5     7    1
    11     7     8    1
    12     8    10    1
    13    10    11    2
    14    10    12    2
    15    10    13    1
    16    13    14    1
    17    14    15   ar
    18    15    16   ar
    19    16    17   ar
    20    17    18   ar
    21    18    19   ar
    22     8     9    1
    23    23    24   am
    24    24    25    1
    25     6     1   ar
    26    19    14   ar
    27     9     4    1
    28    24    26    1
    29    25    27    1
@<TRIPOS>MOLECULE
*****
 27 29 0 0 0
SMALL
GASTEIGER

@<TRIPOS>ATOM
      1 C         140.2264  140.3274  167.3119 C.ar    1  UNL1       -0.0001
      2 C         138.9346  139.5779  167.4513 C.ar    1  UNL1       -0.0003
      3 C         138.2093  139.0995  166.2285 C.ar    1  UNL1       -0.0031
      4 C         138.7758  139.3706  164.8664 C.ar    1  UNL1       -0.0071
      5 C         140.0676  140.1201  164.7269 C.ar    1  UNL1       -0.0071
      6 C         140.7929  140.5985  165.9497 C.ar    1  UNL1       -0.0031
      7 C         140.3797  140.2379  163.2644 C.3     1  UNL1        0.1218
      8 N         139.2807  139.5612  162.5001 N.3     1  UNL1       -0.1502
      9 C         138.2895  139.0251  163.4901 C.3     1  UNL1        0.1218
     10 S         139.1890  139.4415  161.0076 S.O2    1  UNL1        0.0487
     11 O         139.0881  137.9501  161.1334 O.2     1  UNL1       -0.1569
     12 O         139.2899  140.9327  160.8818 O.2     1  UNL1       -0.1569
     13 C         139.0973  139.3218  159.5152 C.3     1  UNL1        0.1955
     14 C         140.2282  138.7124  158.7409 C.ar    1  UNL1        0.0029
     15 C         141.6448  138.9369  159.1801 C.ar    1  UNL1       -0.0025
     16 C         142.7757  138.3274  158.4057 C.ar    1  UNL1       -0.0003
     17 C         142.4900  137.4935  157.1921 C.ar    1  UNL1       -0.0000
     18 C         141.0735  137.2689  156.7528 C.ar    1  UNL1       -0.0003
     19 C         139.9425  137.8784  157.5272 C.ar    1  UNL1       -0.0025
     20 C         140.5557  142.0988  169.1836 C.2     1  UNL1        0.0598
     21 C         140.9516  140.8058  168.5346 C.2     1  UNL1        0.0047
     22 O         140.7464  142.2539  171.7700 O.2     1  UNL1       -0.2681
     23 C         141.2810  142.5772  170.4064 C.2     1  UNL1        0.2679
     24 N         142.5409  143.3789  170.2654 N.am    1  UNL1       -0.1934
     25 O         143.2662  143.8573  171.4881 O.3     1  UNL1       -0.2949
     26 H         142.8918  143.5911  169.3703 H       1  UNL1        0.1825
     27 H         142.7909  143.5644  172.2813 H       1  UNL1        0.2414
@<TRIPOS>BOND
     1    22    23    2
     2    23    20    1
     3    20    21    2
     4    21     1    1
     5     1     2   ar
     6     2     3   ar
     7     3     4   ar
     8     4     5   ar
     9     5     6   ar
    10     5     7    1
    11     7     8    1
    12     8    10    1
    13    10    11    2
    14    10    12    2
    15    10    13    1
    16    13    14    1
    17    14    15   ar
    18    15    16   ar
    19    16    17   ar
    20    17    18   ar
    21    18    19   ar
    22     8     9    1
    23    23    24   am
    24    24    25    1
    25     6     1   ar
    26    19    14   ar
    27     9     4    1
    28    24    26    1
    29    25    27    1
@<TRIPOS>MOLECULE
*****
 27 29 0 0 0
SMALL
GASTEIGER

@<TRIPOS>ATOM
      1 C         143.5330  142.5322  169.9176 C.ar    1  UNL1       -0.0001
      2 C         142.4194  142.3637  170.9082 C.ar    1  UNL1       -0.0003
      3 C         141.1820  141.6077  170.5242 C.ar    1  UNL1       -0.0031
      4 C         141.0583  141.0204  169.1495 C.ar    1  UNL1       -0.0071
      5 C         142.1720  141.1889  168.1590 C.ar    1  UNL1       -0.0071
      6 C         143.4093  141.9449  168.5430 C.ar    1  UNL1       -0.0031
      7 C         141.7688  140.5034  166.8871 C.3     1  UNL1        0.1218
      8 N         140.4060  139.9112  167.0917 N.3     1  UNL1       -0.1502
      9 C         139.9669  140.2307  168.4899 C.3     1  UNL1        0.1218
     10 S         139.6201  139.1356  166.0762 S.O2    1  UNL1        0.0487
     11 O         140.8095  139.1271  165.1622 O.2     1  UNL1       -0.1569
     12 O         138.4308  139.1441  166.9902 O.2     1  UNL1       -0.1569
     13 C         138.8343  138.3600  165.0609 C.3     1  UNL1        0.1955
     14 C         138.4264  139.0101  163.7721 C.ar    1  UNL1        0.0029
     15 C         138.4576  138.2259  162.4938 C.ar    1  UNL1       -0.0025
     16 C         138.0497  138.8760  161.2050 C.ar    1  UNL1       -0.0003
     17 C         137.6106  140.3102  161.1945 C.ar    1  UNL1       -0.0000
     18 C         137.5794  141.0944  162.4728 C.ar    1  UNL1       -0.0003
     19 C         137.9873  140.4444  163.7616 C.ar    1  UNL1       -0.0025
     20 C         144.6696  144.4849  171.2004 C.2     1  UNL1        0.0598
     21 C         144.7704  143.2882  170.3017 C.2     1  UNL1        0.0047
     22 O         145.9578  146.7306  171.4176 O.2     1  UNL1       -0.2681
     23 C         145.9069  145.2408  171.5845 C.2     1  UNL1        0.2679
     24 N         147.0935  144.5069  172.1355 N.am    1  UNL1       -0.1934
     25 O         148.3308  145.2628  172.5195 O.3     1  UNL1       -0.2949
     26 H         147.0601  143.5290  172.2450 H       1  UNL1        0.1825
     27 H         148.1978  146.2085  172.3496 H       1  UNL1        0.2414
@<TRIPOS>BOND
     1    22    23    2
     2    23    20    1
     3    20    21    2
     4    21     1    1
     5     1     2   ar
     6     2     3   ar
     7     3     4   ar
     8     4     5   ar
     9     5     6   ar
    10     5     7    1
    11     7     8    1
    12     8    10    1
    13    10    11    2
    14    10    12    2
    15    10    13    1
    16    13    14    1
    17    14    15   ar
    18    15    16   ar
    19    16    17   ar
    20    17    18   ar
    21    18    19   ar
    22     8     9    1
    23    23    24   am
    24    24    25    1
    25     6     1   ar
    26    19    14   ar
    27     9     4    1
    28    24    26    1
    29    25    27    1
