@<TRIPOS>MOLECULE
*****
 43 47 0 0 0
SMALL
GASTEIGER

@<TRIPOS>ATOM
      1 N         141.7971  145.2934  159.5125 N.am    1  UNL1       -0.2681
      2 C         141.8216  144.5122  160.7928 C.2     1  UNL1        0.3082
      3 O         140.8438  143.3953  161.0087 O.2     1  UNL1       -0.2522
      4 N         142.8237  144.8479  161.8572 N.am    1  UNL1       -0.2681
      5 H         142.4388  146.0265  159.3708 H       1  UNL1        0.1564
      6 H         143.4654  145.5810  161.7155 H       1  UNL1        0.1564
      7 N         137.8125  144.2544  155.1825 N.ar    1  UNL1       -0.3048
      8 C         137.7183  145.6390  154.6134 C.ar    1  UNL1        0.0801
      9 C         138.6382  146.5264  155.3985 C.ar    1  UNL1        0.0205
     10 C         139.3009  145.6902  156.4529 C.ar    1  UNL1        0.0188
     11 C         140.3030  146.0260  157.5172 C.ar    1  UNL1        0.0162
     12 C         140.7949  144.9576  158.4481 C.ar    1  UNL1        0.0517
     13 C         140.2846  143.5534  158.3146 C.ar    1  UNL1        0.0162
     14 C         139.2824  143.2176  157.2503 C.ar    1  UNL1        0.0188
     15 C         138.7906  144.2860  156.3194 C.ar    1  UNL1        0.0641
     16 C         135.1742  141.2937  155.0284 C.ar    1  UNL1        0.1359
     17 C         135.9261  142.4985  155.5113 C.ar    1  UNL1        0.0413
     18 C         137.0606  143.0496  154.6996 C.ar    1  UNL1        0.0672
     19 C         137.4434  142.3958  153.4049 C.ar    1  UNL1        0.0382
     20 C         136.6916  141.1910  152.9220 C.ar    1  UNL1        0.1005
     21 N         135.5570  140.6400  153.7337 N.ar    1  UNL1       -0.2392
     22 C         133.1792  139.2218  157.7628 C.3     1  UNL1        0.1110
     23 N         134.3138  139.7728  156.9511 N.am    1  UNL1       -0.2979
     24 C         134.0396  140.7426  155.8401 C.2     1  UNL1        0.2637
     25 O         132.6306  141.1613  155.5409 O.2     1  UNL1       -0.2685
     26 H         135.2385  139.4980  157.1475 H       1  UNL1        0.1498
     27 C         142.8482  144.0668  163.1375 C.ar    1  UNL1        0.0516
     28 C         144.1482  143.8313  163.8476 C.ar    1  UNL1        0.0160
     29 C         144.1727  143.0501  165.1279 C.ar    1  UNL1        0.0157
     30 C         142.8971  142.5044  165.6981 C.ar    1  UNL1        0.0519
     31 C         141.5970  142.7399  164.9879 C.ar    1  UNL1        0.0859
     32 C         141.5725  143.5211  163.7076 C.ar    1  UNL1        0.0198
     33 N         142.9216  141.7232  166.9784 N.pl3   1  UNL1       -0.3047
     34 C         142.6692  140.2448  166.9598 C.3     1  UNL1        0.1081
     35 C         142.6937  139.4636  168.2401 C.3     1  UNL1        0.0938
     36 N         142.9706  140.1609  169.5390 N.3     1  UNL1       -0.2686
     37 C         142.9950  139.3797  170.8193 C.3     1  UNL1        0.0897
     38 C         143.2229  141.6394  169.5576 C.3     1  UNL1        0.0938
     39 C         143.1985  142.4206  168.2773 C.3     1  UNL1        0.1081
     40 C         140.3214  142.1942  165.5581 C.3     1  UNL1        0.4198
     41 F         139.0458  141.6486  166.1282 F       1  UNL1       -0.1658
     42 F         140.2216  143.3807  166.4703 F       1  UNL1       -0.1658
     43 F         140.4213  141.0077  164.6459 F       1  UNL1       -0.1658
@<TRIPOS>BOND
     1    22    23    1
     2    23    24   am
     3    24    25    2
     4    24    16    1
     5    16    17   ar
     6    17    18   ar
     7    18     7    1
     8     7     8   ar
     9     8     9   ar
    10     9    10   ar
    11    10    11   ar
    12    11    12   ar
    13    12     1    1
    14     1     2   am
    15     2     3    2
    16     2     4   am
    17     4    27    1
    18    27    28   ar
    19    28    29   ar
    20    29    30   ar
    21    30    33    1
    22    33    34    1
    23    34    35    1
    24    35    36    1
    25    36    37    1
    26    36    38    1
    27    38    39    1
    28    30    31   ar
    29    31    40    1
    30    40    41    1
    31    40    42    1
    32    40    43    1
    33    31    32   ar
    34    12    13   ar
    35    13    14   ar
    36    14    15   ar
    37    18    19   ar
    38    19    20   ar
    39    20    21   ar
    40    21    16   ar
    41    15     7   ar
    42    15    10   ar
    43    32    27   ar
    44    39    33    1
    45    23    26    1
    46     1     5    1
    47     4     6    1
@<TRIPOS>MOLECULE
*****
 43 47 0 0 0
SMALL
GASTEIGER

@<TRIPOS>ATOM
      1 N         143.4273  139.3440  158.0123 N.am    1  UNL1       -0.2681
      2 C         143.0329  138.0235  157.4201 C.2     1  UNL1        0.3082
      3 O         141.8488  137.2810  157.9649 O.2     1  UNL1       -0.2522
      4 N         143.8225  137.4455  156.2833 N.am    1  UNL1       -0.2681
      5 H         144.2044  139.8314  157.6548 H       1  UNL1        0.1564
      6 H         144.5996  137.9329  155.9258 H       1  UNL1        0.1564
      7 N         140.0887  141.7735  162.3316 N.ar    1  UNL1       -0.3048
      8 C         139.0621  142.4571  161.4780 C.ar    1  UNL1        0.0801
      9 C         139.3974  142.1840  160.0417 C.ar    1  UNL1        0.0205
     10 C         140.6312  141.3316  160.0076 C.ar    1  UNL1        0.0188
     11 C         141.4208  140.7536  158.8707 C.ar    1  UNL1        0.0162
     12 C         142.6376  139.9220  159.1492 C.ar    1  UNL1        0.0517
     13 C         143.0649  139.6683  160.5645 C.ar    1  UNL1        0.0162
     14 C         142.2753  140.2462  161.7013 C.ar    1  UNL1        0.0188
     15 C         141.0585  141.0778  161.4229 C.ar    1  UNL1        0.0641
     16 C         139.5149  140.7019  166.1095 C.ar    1  UNL1        0.1359
     17 C         139.4665  140.6917  164.6103 C.ar    1  UNL1        0.0413
     18 C         140.1371  141.7836  163.8308 C.ar    1  UNL1        0.0672
     19 C         140.8563  142.8859  164.5505 C.ar    1  UNL1        0.0382
     20 C         140.9047  142.8961  166.0497 C.ar    1  UNL1        0.1005
     21 N         140.2340  141.8041  166.8292 N.ar    1  UNL1       -0.2392
     22 C         137.3975  137.4527  166.9520 C.3     1  UNL1        0.1110
     23 N         138.0683  138.5447  166.1725 N.am    1  UNL1       -0.2979
     24 C         138.8441  139.6099  166.8890 C.2     1  UNL1        0.2637
     25 O         138.9493  139.5830  168.3851 O.2     1  UNL1       -0.2685
     26 H         137.9993  138.5623  165.1906 H       1  UNL1        0.1498
     27 C         143.4281  136.1250  155.6911 C.ar    1  UNL1        0.0516
     28 C         142.6639  136.0797  154.4012 C.ar    1  UNL1        0.0160
     29 C         142.2695  134.7592  153.8090 C.ar    1  UNL1        0.0157
     30 C         142.6393  133.4840  154.5068 C.ar    1  UNL1        0.0519
     31 C         143.4034  133.5292  155.7968 C.ar    1  UNL1        0.0859
     32 C         143.7979  134.8497  156.3890 C.ar    1  UNL1        0.0198
     33 N         142.2448  132.1634  153.9147 N.pl3   1  UNL1       -0.3047
     34 C         143.1680  131.4628  152.9624 C.3     1  UNL1        0.1081
     35 C         142.7736  130.1423  152.3702 C.3     1  UNL1        0.0938
     36 N         141.4560  129.5224  152.7304 N.3     1  UNL1       -0.2686
     37 C         141.0616  128.2018  152.1382 C.3     1  UNL1        0.0897
     38 C         140.5328  130.2230  153.6827 C.3     1  UNL1        0.0938
     39 C         140.9272  131.5435  154.2748 C.3     1  UNL1        0.1081
     40 C         143.7732  132.2539  156.4946 C.3     1  UNL1        0.4198
     41 F         144.1429  130.9786  157.1924 F       1  UNL1       -0.1658
     42 F         142.4463  132.2520  157.1941 F       1  UNL1       -0.1658
     43 F         145.1001  132.2559  155.7951 F       1  UNL1       -0.1658
@<TRIPOS>BOND
     1    22    23    1
     2    23    24   am
     3    24    25    2
     4    24    16    1
     5    16    17   ar
     6    17    18   ar
     7    18     7    1
     8     7     8   ar
     9     8     9   ar
    10     9    10   ar
    11    10    11   ar
    12    11    12   ar
    13    12     1    1
    14     1     2   am
    15     2     3    2
    16     2     4   am
    17     4    27    1
    18    27    28   ar
    19    28    29   ar
    20    29    30   ar
    21    30    33    1
    22    33    34    1
    23    34    35    1
    24    35    36    1
    25    36    37    1
    26    36    38    1
    27    38    39    1
    28    30    31   ar
    29    31    40    1
    30    40    41    1
    31    40    42    1
    32    40    43    1
    33    31    32   ar
    34    12    13   ar
    35    13    14   ar
    36    14    15   ar
    37    18    19   ar
    38    19    20   ar
    39    20    21   ar
    40    21    16   ar
    41    15     7   ar
    42    15    10   ar
    43    32    27   ar
    44    39    33    1
    45    23    26    1
    46     1     5    1
    47     4     6    1
@<TRIPOS>MOLECULE
*****
 43 47 0 0 0
SMALL
GASTEIGER

@<TRIPOS>ATOM
      1 N         137.3115  140.4142  158.5013 N.am    1  UNL1       -0.2681
      2 C         137.9153  140.4819  159.8727 C.2     1  UNL1        0.3082
      3 O         139.0386  141.4362  160.1514 O.2     1  UNL1       -0.2522
      4 N         137.3958  139.5954  160.9655 N.am    1  UNL1       -0.2681
      5 H         136.5743  139.7879  158.3184 H       1  UNL1        0.1564
      6 H         136.6586  138.9690  160.7826 H       1  UNL1        0.1564
      7 N         139.3413  143.7096  153.9488 N.ar    1  UNL1       -0.3048
      8 C         139.2191  142.6942  152.8515 C.ar    1  UNL1        0.0801
      9 C         138.6723  141.4310  153.4478 C.ar    1  UNL1        0.0205
     10 C         138.4566  141.6658  154.9135 C.ar    1  UNL1        0.0188
     11 C         137.9371  140.7792  156.0062 C.ar    1  UNL1        0.0162
     12 C         137.8310  141.3008  157.4085 C.ar    1  UNL1        0.0517
     13 C         138.2444  142.7091  157.7181 C.ar    1  UNL1        0.0162
     14 C         138.7639  143.5957  156.6255 C.ar    1  UNL1        0.0188
     15 C         138.8700  143.0740  155.2231 C.ar    1  UNL1        0.0641
     16 C         139.7523  147.6227  154.4674 C.ar    1  UNL1        0.1359
     17 C         139.2475  146.2182  154.6181 C.ar    1  UNL1        0.0413
     18 C         139.8461  145.1140  153.7981 C.ar    1  UNL1        0.0672
     19 C         140.9496  145.4143  152.8274 C.ar    1  UNL1        0.0382
     20 C         141.4544  146.8188  152.6768 C.ar    1  UNL1        0.1005
     21 N         140.8557  147.9230  153.4968 N.ar    1  UNL1       -0.2392
     22 C         138.1253  149.5677  157.5202 C.3     1  UNL1        0.1110
     23 N         138.7240  148.4636  156.7002 N.am    1  UNL1       -0.2979
     24 C         139.1536  148.7268  155.2874 C.2     1  UNL1        0.2637
     25 O         138.9846  150.0943  154.6946 O.2     1  UNL1       -0.2685
     26 H         138.8349  147.5661  157.0893 H       1  UNL1        0.1498
     27 C         137.9996  139.6631  162.3369 C.ar    1  UNL1        0.0516
     28 C         137.6812  140.8172  163.2404 C.ar    1  UNL1        0.0160
     29 C         138.2850  140.8849  164.6119 C.ar    1  UNL1        0.0157
     30 C         139.2072  139.7984  165.0798 C.ar    1  UNL1        0.0519
     31 C         139.5256  138.6441  164.1763 C.ar    1  UNL1        0.0859
     32 C         138.9218  138.5765  162.8048 C.ar    1  UNL1        0.0198
     33 N         139.8110  139.8661  166.4513 N.pl3   1  UNL1       -0.3047
     34 C         141.2959  140.0056  166.6109 C.3     1  UNL1        0.1081
     35 C         141.8996  140.0733  167.9824 C.3     1  UNL1        0.0938
     36 N         141.0185  140.0015  169.1941 N.3     1  UNL1       -0.2686
     37 C         141.6223  140.0692  170.5656 C.3     1  UNL1        0.0897
     38 C         139.5335  139.8620  169.0345 C.3     1  UNL1        0.0938
     39 C         138.9297  139.7943  167.6631 C.3     1  UNL1        0.1081
     40 C         140.4478  137.5576  164.6442 C.3     1  UNL1        0.4198
     41 F         141.3700  136.4711  165.1121 F       1  UNL1       -0.1658
     42 F         141.5767  138.1885  163.8843 F       1  UNL1       -0.1658
     43 F         139.3189  136.9267  165.4041 F       1  UNL1       -0.1658
@<TRIPOS>BOND
     1    22    23    1
     2    23    24   am
     3    24    25    2
     4    24    16    1
     5    16    17   ar
     6    17    18   ar
     7    18     7    1
     8     7     8   ar
     9     8     9   ar
    10     9    10   ar
    11    10    11   ar
    12    11    12   ar
    13    12     1    1
    14     1     2   am
    15     2     3    2
    16     2     4   am
    17     4    27    1
    18    27    28   ar
    19    28    29   ar
    20    29    30   ar
    21    30    33    1
    22    33    34    1
    23    34    35    1
    24    35    36    1
    25    36    37    1
    26    36    38    1
    27    38    39    1
    28    30    31   ar
    29    31    40    1
    30    40    41    1
    31    40    42    1
    32    40    43    1
    33    31    32   ar
    34    12    13   ar
    35    13    14   ar
    36    14    15   ar
    37    18    19   ar
    38    19    20   ar
    39    20    21   ar
    40    21    16   ar
    41    15     7   ar
    42    15    10   ar
    43    32    27   ar
    44    39    33    1
    45    23    26    1
    46     1     5    1
    47     4     6    1
@<TRIPOS>MOLECULE
*****
 43 47 0 0 0
SMALL
GASTEIGER

@<TRIPOS>ATOM
      1 N         142.0664  142.3033  158.6786 N.am    1  UNL1       -0.2681
      2 C         141.8704  142.3612  160.1646 C.2     1  UNL1        0.3082
      3 O         141.0562  143.4654  160.7712 O.2     1  UNL1       -0.2522
      4 N         142.4884  141.3149  161.0440 N.am    1  UNL1       -0.2681
      5 H         142.6008  141.5786  158.2804 H       1  UNL1        0.1564
      6 H         143.0228  140.5902  160.6458 H       1  UNL1        0.1564
      7 N         139.3471  146.2952  155.1608 N.ar    1  UNL1       -0.3048
      8 C         138.0366  145.5896  154.9749 C.ar    1  UNL1        0.0801
      9 C         138.0917  144.3005  155.7398 C.ar    1  UNL1        0.0205
     10 C         139.4363  144.2093  156.3984 C.ar    1  UNL1        0.0188
     11 C         140.0543  143.1631  157.2777 C.ar    1  UNL1        0.0162
     12 C         141.4483  143.3496  157.7992 C.ar    1  UNL1        0.0517
     13 C         142.2242  144.5824  157.4414 C.ar    1  UNL1        0.0162
     14 C         141.6062  145.6287  156.5620 C.ar    1  UNL1        0.0188
     15 C         140.2122  145.4422  156.0406 C.ar    1  UNL1        0.0641
     16 C         139.6020  150.2160  154.6018 C.ar    1  UNL1        0.1359
     17 C         139.2230  148.8901  155.1920 C.ar    1  UNL1        0.0413
     18 C         139.7261  147.6211  154.5705 C.ar    1  UNL1        0.0672
     19 C         140.6084  147.6779  153.3587 C.ar    1  UNL1        0.0382
     20 C         140.9874  149.0038  152.7684 C.ar    1  UNL1        0.1005
     21 N         140.4842  150.2729  153.3900 N.ar    1  UNL1       -0.2392
     22 C         138.0896  153.8661  154.9747 C.3     1  UNL1        0.1110
     23 N         138.5928  152.5971  154.3532 N.am    1  UNL1       -0.2979
     24 C         139.0988  151.4850  155.2233 C.2     1  UNL1        0.2637
     25 O         139.1016  151.6420  156.7151 O.2     1  UNL1       -0.2685
     26 H         138.5909  152.4941  153.3741 H       1  UNL1        0.1498
     27 C         142.2923  141.3728  162.5300 C.ar    1  UNL1        0.0516
     28 C         143.2883  142.0922  163.3904 C.ar    1  UNL1        0.0160
     29 C         143.0922  142.1501  164.8764 C.ar    1  UNL1        0.0157
     30 C         141.9002  141.4886  165.5020 C.ar    1  UNL1        0.0519
     31 C         140.9041  140.7691  164.6415 C.ar    1  UNL1        0.0859
     32 C         141.1002  140.7112  163.1555 C.ar    1  UNL1        0.0198
     33 N         141.7041  141.5464  166.9880 N.pl3   1  UNL1       -0.3047
     34 C         140.7605  142.5501  167.5814 C.3     1  UNL1        0.1081
     35 C         140.5644  142.6079  169.0674 C.3     1  UNL1        0.0938
     36 N         141.3120  141.6622  169.9600 N.3     1  UNL1       -0.2686
     37 C         141.1159  141.7201  171.4460 C.3     1  UNL1        0.0897
     38 C         142.2557  140.6585  169.3665 C.3     1  UNL1        0.0938
     39 C         142.4518  140.6006  167.8805 C.3     1  UNL1        0.1081
     40 C         139.7121  140.1076  165.2670 C.3     1  UNL1        0.4198
     41 F         138.5201  139.4460  165.8926 F       1  UNL1       -0.1658
     42 F         138.8954  141.3400  165.0141 F       1  UNL1       -0.1658
     43 F         140.5288  138.8751  165.5200 F       1  UNL1       -0.1658
@<TRIPOS>BOND
     1    22    23    1
     2    23    24   am
     3    24    25    2
     4    24    16    1
     5    16    17   ar
     6    17    18   ar
     7    18     7    1
     8     7     8   ar
     9     8     9   ar
    10     9    10   ar
    11    10    11   ar
    12    11    12   ar
    13    12     1    1
    14     1     2   am
    15     2     3    2
    16     2     4   am
    17     4    27    1
    18    27    28   ar
    19    28    29   ar
    20    29    30   ar
    21    30    33    1
    22    33    34    1
    23    34    35    1
    24    35    36    1
    25    36    37    1
    26    36    38    1
    27    38    39    1
    28    30    31   ar
    29    31    40    1
    30    40    41    1
    31    40    42    1
    32    40    43    1
    33    31    32   ar
    34    12    13   ar
    35    13    14   ar
    36    14    15   ar
    37    18    19   ar
    38    19    20   ar
    39    20    21   ar
    40    21    16   ar
    41    15     7   ar
    42    15    10   ar
    43    32    27   ar
    44    39    33    1
    45    23    26    1
    46     1     5    1
    47     4     6    1
@<TRIPOS>MOLECULE
*****
 43 47 0 0 0
SMALL
GASTEIGER

@<TRIPOS>ATOM
      1 N         142.0164  143.0566  158.6436 N.am    1  UNL1       -0.2681
      2 C         141.7833  142.8883  160.1158 C.2     1  UNL1        0.3082
      3 O         140.3838  142.8583  160.6550 O.2     1  UNL1       -0.2522
      4 N         142.9496  142.7499  161.0488 N.am    1  UNL1       -0.2681
      5 H         142.9349  143.0763  158.2897 H       1  UNL1        0.1564
      6 H         143.8681  142.7695  160.6949 H       1  UNL1        0.1564
      7 N         137.4309  143.9134  154.9095 N.ar    1  UNL1       -0.3048
      8 C         137.5694  145.3927  154.7036 C.ar    1  UNL1        0.0801
      9 C         138.7414  145.8654  155.5116 C.ar    1  UNL1        0.0205
     10 C         139.3273  144.6782  156.2169 C.ar    1  UNL1        0.0188
     11 C         140.4936  144.5398  157.1498 C.ar    1  UNL1        0.0162
     12 C         140.8500  143.1951  157.7106 C.ar    1  UNL1        0.0517
     13 C         140.0400  141.9886  157.3384 C.ar    1  UNL1        0.0162
     14 C         138.8737  142.1270  156.4055 C.ar    1  UNL1        0.0188
     15 C         138.5173  143.4718  155.8447 C.ar    1  UNL1        0.0641
     16 C         134.5382  141.2231  154.5292 C.ar    1  UNL1        0.1359
     17 C         135.5802  142.1059  155.1496 C.ar    1  UNL1        0.0413
     18 C         136.3889  143.0306  154.2890 C.ar    1  UNL1        0.0672
     19 C         136.1555  143.0727  152.8078 C.ar    1  UNL1        0.0382
     20 C         135.1135  142.1899  152.1874 C.ar    1  UNL1        0.1005
     21 N         134.3049  141.2651  153.0480 N.ar    1  UNL1       -0.2392
     22 C         131.5131  139.7339  156.6223 C.3     1  UNL1        0.1110
     23 N         132.3218  140.6587  155.7616 N.am    1  UNL1       -0.2979
     24 C         133.7296  140.2983  155.3899 C.2     1  UNL1        0.2637
     25 O         134.3287  139.0130  155.8789 O.2     1  UNL1       -0.2685
     26 H         131.9285  141.5022  155.4407 H       1  UNL1        0.1498
     27 C         142.7165  142.5815  162.5210 C.ar    1  UNL1        0.0516
     28 C         142.4166  143.7779  163.3745 C.ar    1  UNL1        0.0160
     29 C         142.1835  143.6095  164.8467 C.ar    1  UNL1        0.0157
     30 C         142.2504  142.2448  165.4653 C.ar    1  UNL1        0.0519
     31 C         142.5504  141.0482  164.6118 C.ar    1  UNL1        0.0859
     32 C         142.7835  141.2166  163.1396 C.ar    1  UNL1        0.0198
     33 N         142.0173  142.0764  166.9375 N.pl3   1  UNL1       -0.3047
     34 C         143.1673  142.1769  167.8953 C.3     1  UNL1        0.1081
     35 C         142.9342  142.0086  169.3675 C.3     1  UNL1        0.0938
     36 N         141.5511  141.7397  169.8819 N.3     1  UNL1       -0.2686
     37 C         141.3181  141.5713  171.3541 C.3     1  UNL1        0.0897
     38 C         140.4010  141.6391  168.9241 C.3     1  UNL1        0.0938
     39 C         140.6341  141.8075  167.4520 C.3     1  UNL1        0.1081
     40 C         142.6173  139.6834  165.2305 C.3     1  UNL1        0.4198
     41 F         142.6842  138.3186  165.8492 F       1  UNL1       -0.1658
     42 F         144.1020  139.8275  165.3878 F       1  UNL1       -0.1658
     43 F         141.1326  139.5394  165.0732 F       1  UNL1       -0.1658
@<TRIPOS>BOND
     1    22    23    1
     2    23    24   am
     3    24    25    2
     4    24    16    1
     5    16    17   ar
     6    17    18   ar
     7    18     7    1
     8     7     8   ar
     9     8     9   ar
    10     9    10   ar
    11    10    11   ar
    12    11    12   ar
    13    12     1    1
    14     1     2   am
    15     2     3    2
    16     2     4   am
    17     4    27    1
    18    27    28   ar
    19    28    29   ar
    20    29    30   ar
    21    30    33    1
    22    33    34    1
    23    34    35    1
    24    35    36    1
    25    36    37    1
    26    36    38    1
    27    38    39    1
    28    30    31   ar
    29    31    40    1
    30    40    41    1
    31    40    42    1
    32    40    43    1
    33    31    32   ar
    34    12    13   ar
    35    13    14   ar
    36    14    15   ar
    37    18    19   ar
    38    19    20   ar
    39    20    21   ar
    40    21    16   ar
    41    15     7   ar
    42    15    10   ar
    43    32    27   ar
    44    39    33    1
    45    23    26    1
    46     1     5    1
    47     4     6    1
@<TRIPOS>MOLECULE
*****
 43 47 0 0 0
SMALL
GASTEIGER

@<TRIPOS>ATOM
      1 N         143.4447  138.3770  156.9070 N.am    1  UNL1       -0.2681
      2 C         143.1489  138.7034  158.3408 C.2     1  UNL1        0.3082
      3 O         142.4045  137.7208  159.1956 O.2     1  UNL1       -0.2522
      4 N         143.5974  140.0124  158.9200 N.am    1  UNL1       -0.2681
      5 H         143.9332  139.0219  156.3460 H       1  UNL1        0.1564
      6 H         144.0859  140.6573  158.3590 H       1  UNL1        0.1564
      7 N         141.5787  133.3143  154.3395 N.ar    1  UNL1       -0.3048
      8 C         141.1403  133.8698  153.0169 C.ar    1  UNL1        0.0801
      9 C         141.3899  135.3489  153.0298 C.ar    1  UNL1        0.0205
     10 C         141.9826  135.7074  154.3603 C.ar    1  UNL1        0.0188
     11 C         142.4311  137.0164  154.9394 C.ar    1  UNL1        0.0162
     12 C         142.9962  137.0679  156.3279 C.ar    1  UNL1        0.0517
     13 C         143.1129  135.8105  157.1373 C.ar    1  UNL1        0.0162
     14 C         142.6644  134.5015  156.5582 C.ar    1  UNL1        0.0188
     15 C         142.0992  134.4499  155.1698 C.ar    1  UNL1        0.0641
     16 C         142.4917  129.8669  156.0807 C.ar    1  UNL1        0.1359
     17 C         142.5615  131.3055  155.6619 C.ar    1  UNL1        0.0413
     18 C         141.5088  131.8756  154.7583 C.ar    1  UNL1        0.0672
     19 C         140.3860  131.0070  154.2734 C.ar    1  UNL1        0.0382
     20 C         140.3161  129.5683  154.6922 C.ar    1  UNL1        0.1005
     21 N         141.3690  128.9983  155.5958 N.ar    1  UNL1       -0.2392
     22 C         144.4377  128.8181  159.3766 C.3     1  UNL1        0.1110
     23 N         143.3849  129.3881  158.4730 N.am    1  UNL1       -0.2979
     24 C         143.5445  129.2968  156.9843 C.2     1  UNL1        0.2637
     25 O         144.7570  128.6353  156.3993 O.2     1  UNL1       -0.2685
     26 H         142.5891  129.8223  158.8570 H       1  UNL1        0.1498
     27 C         143.3015  140.3388  160.3538 C.ar    1  UNL1        0.0516
     28 C         142.1819  141.2773  160.6938 C.ar    1  UNL1        0.0160
     29 C         141.8861  141.6037  162.1276 C.ar    1  UNL1        0.0157
     30 C         142.7099  140.9916  163.2215 C.ar    1  UNL1        0.0519
     31 C         143.8296  140.0531  162.8816 C.ar    1  UNL1        0.0859
     32 C         144.1254  139.7267  161.4477 C.ar    1  UNL1        0.0198
     33 N         142.4141  141.3181  164.6554 N.pl3   1  UNL1       -0.3047
     34 C         141.1854  140.7631  165.3128 C.3     1  UNL1        0.1081
     35 C         140.8895  141.0895  166.7467 C.3     1  UNL1        0.0938
     36 N         141.8224  141.9709  167.5231 N.3     1  UNL1       -0.2686
     37 C         141.5266  142.2973  168.9569 C.3     1  UNL1        0.0897
     38 C         143.0512  142.5259  166.8656 C.3     1  UNL1        0.0938
     39 C         143.3470  142.1995  165.4318 C.3     1  UNL1        0.1081
     40 C         144.6534  139.4410  163.9755 C.3     1  UNL1        0.4198
     41 F         145.4772  138.8290  165.0694 F       1  UNL1       -0.1658
     42 F         145.7284  140.4593  163.7357 F       1  UNL1       -0.1658
     43 F         143.5784  138.4228  164.2153 F       1  UNL1       -0.1658
@<TRIPOS>BOND
     1    22    23    1
     2    23    24   am
     3    24    25    2
     4    24    16    1
     5    16    17   ar
     6    17    18   ar
     7    18     7    1
     8     7     8   ar
     9     8     9   ar
    10     9    10   ar
    11    10    11   ar
    12    11    12   ar
    13    12     1    1
    14     1     2   am
    15     2     3    2
    16     2     4   am
    17     4    27    1
    18    27    28   ar
    19    28    29   ar
    20    29    30   ar
    21    30    33    1
    22    33    34    1
    23    34    35    1
    24    35    36    1
    25    36    37    1
    26    36    38    1
    27    38    39    1
    28    30    31   ar
    29    31    40    1
    30    40    41    1
    31    40    42    1
    32    40    43    1
    33    31    32   ar
    34    12    13   ar
    35    13    14   ar
    36    14    15   ar
    37    18    19   ar
    38    19    20   ar
    39    20    21   ar
    40    21    16   ar
    41    15     7   ar
    42    15    10   ar
    43    32    27   ar
    44    39    33    1
    45    23    26    1
    46     1     5    1
    47     4     6    1
@<TRIPOS>MOLECULE
*****
 43 47 0 0 0
SMALL
GASTEIGER

@<TRIPOS>ATOM
      1 N         143.7852  139.0042  159.0706 N.am    1  UNL1       -0.2681
      2 C         143.3026  139.2986  160.4600 C.2     1  UNL1        0.3082
      3 O         141.8609  139.0839  160.8144 O.2     1  UNL1       -0.2522
      4 N         144.2616  139.8077  161.4949 N.am    1  UNL1       -0.2681
      5 H         144.7313  139.1451  158.8379 H       1  UNL1        0.1564
      6 H         145.2077  139.9486  161.2623 H       1  UNL1        0.1564
      7 N         140.1120  136.7013  154.9585 N.ar    1  UNL1       -0.3048
      8 C         140.6910  135.3201  154.8741 C.ar    1  UNL1        0.0801
      9 C         141.8450  135.2422  155.8292 C.ar    1  UNL1        0.0205
     10 C         141.9791  136.5751  156.5040 C.ar    1  UNL1        0.0188
     11 C         142.9381  137.0842  157.5389 C.ar    1  UNL1        0.0162
     12 C         142.8261  138.4950  158.0357 C.ar    1  UNL1        0.0517
     13 C         141.7550  139.3968  157.4976 C.ar    1  UNL1        0.0162
     14 C         140.7960  138.8878  156.4627 C.ar    1  UNL1        0.0188
     15 C         140.9080  137.4769  155.9659 C.ar    1  UNL1        0.0641
     16 C         136.8111  138.6945  154.0197 C.ar    1  UNL1        0.1359
     17 C         137.9809  138.1794  154.8047 C.ar    1  UNL1        0.0413
     18 C         138.9422  137.2164  154.1735 C.ar    1  UNL1        0.0672
     19 C         138.7337  136.7685  152.7571 C.ar    1  UNL1        0.0382
     20 C         137.5639  137.2837  151.9721 C.ar    1  UNL1        0.1005
     21 N         136.6026  138.2467  152.6034 N.ar    1  UNL1       -0.2392
     22 C         133.7353  140.1067  156.0921 C.3     1  UNL1        0.1110
     23 N         134.6966  139.1437  155.4609 N.am    1  UNL1       -0.2979
     24 C         135.8498  139.6575  154.6509 C.2     1  UNL1        0.2637
     25 O         136.0417  141.1344  154.4723 O.2     1  UNL1       -0.2685
     26 H         134.5706  138.1744  155.5781 H       1  UNL1        0.1498
     27 C         143.7790  140.1021  162.8843 C.ar    1  UNL1        0.0516
     28 C         144.1301  139.1774  164.0119 C.ar    1  UNL1        0.0160
     29 C         143.6475  139.4718  165.4013 C.ar    1  UNL1        0.0157
     30 C         142.8138  140.6909  165.6631 C.ar    1  UNL1        0.0519
     31 C         142.4626  141.6157  164.5355 C.ar    1  UNL1        0.0859
     32 C         142.9452  141.3213  163.1461 C.ar    1  UNL1        0.0198
     33 N         142.3312  140.9854  167.0525 N.pl3   1  UNL1       -0.3047
     34 C         141.1638  140.2310  167.6166 C.3     1  UNL1        0.1081
     35 C         140.6812  140.5255  169.0060 C.3     1  UNL1        0.0938
     36 N         141.3660  141.5742  169.8313 N.3     1  UNL1       -0.2686
     37 C         140.8834  141.8686  171.2207 C.3     1  UNL1        0.0897
     38 C         142.5334  142.3286  169.2672 C.3     1  UNL1        0.0938
     39 C         143.0160  142.0341  167.8778 C.3     1  UNL1        0.1081
     40 C         141.6288  142.8348  164.7972 C.3     1  UNL1        0.4198
     41 F         140.7950  144.0539  165.0590 F       1  UNL1       -0.1658
     42 F         140.3827  142.0088  164.6754 F       1  UNL1       -0.1658
     43 F         142.8749  143.6609  164.9191 F       1  UNL1       -0.1658
@<TRIPOS>BOND
     1    22    23    1
     2    23    24   am
     3    24    25    2
     4    24    16    1
     5    16    17   ar
     6    17    18   ar
     7    18     7    1
     8     7     8   ar
     9     8     9   ar
    10     9    10   ar
    11    10    11   ar
    12    11    12   ar
    13    12     1    1
    14     1     2   am
    15     2     3    2
    16     2     4   am
    17     4    27    1
    18    27    28   ar
    19    28    29   ar
    20    29    30   ar
    21    30    33    1
    22    33    34    1
    23    34    35    1
    24    35    36    1
    25    36    37    1
    26    36    38    1
    27    38    39    1
    28    30    31   ar
    29    31    40    1
    30    40    41    1
    31    40    42    1
    32    40    43    1
    33    31    32   ar
    34    12    13   ar
    35    13    14   ar
    36    14    15   ar
    37    18    19   ar
    38    19    20   ar
    39    20    21   ar
    40    21    16   ar
    41    15     7   ar
    42    15    10   ar
    43    32    27   ar
    44    39    33    1
    45    23    26    1
    46     1     5    1
    47     4     6    1
@<TRIPOS>MOLECULE
*****
 43 47 0 0 0
SMALL
GASTEIGER

@<TRIPOS>ATOM
      1 N         143.6295  139.4657  157.8772 N.am    1  UNL1       -0.2681
      2 C         143.2295  138.1052  157.3883 C.2     1  UNL1        0.3082
      3 O         142.2960  137.2599  158.2033 O.2     1  UNL1       -0.2522
      4 N         143.7630  137.5899  156.0845 N.am    1  UNL1       -0.2681
      5 H         144.2422  140.0205  157.3423 H       1  UNL1        0.1564
      6 H         144.3756  138.1447  155.5496 H       1  UNL1        0.1564
      7 N         141.2462  141.6074  162.9207 N.ar    1  UNL1       -0.3048
      8 C         139.9411  142.1026  162.3715 C.ar    1  UNL1        0.0801
      9 C         139.9175  141.8124  160.9000 C.ar    1  UNL1        0.0205
     10 C         141.2080  141.1379  160.5398 C.ar    1  UNL1        0.0188
     11 C         141.7414  140.6227  159.2360 C.ar    1  UNL1        0.0162
     12 C         143.0960  139.9809  159.1810 C.ar    1  UNL1        0.0517
     13 C         143.9172  139.8542  160.4299 C.ar    1  UNL1        0.0162
     14 C         143.3837  140.3694  161.7337 C.ar    1  UNL1        0.0188
     15 C         142.0292  141.0113  161.7887 C.ar    1  UNL1        0.0641
     16 C         141.2927  141.1749  166.8654 C.ar    1  UNL1        0.1359
     17 C         140.8486  141.0890  165.4353 C.ar    1  UNL1        0.0413
     18 C         141.6903  141.6934  164.3509 C.ar    1  UNL1        0.0672
     19 C         142.9764  142.3839  164.6966 C.ar    1  UNL1        0.0382
     20 C         143.4205  142.4698  166.1268 C.ar    1  UNL1        0.1005
     21 N         142.5787  141.8654  167.2112 N.ar    1  UNL1       -0.2392
     22 C         140.0286  140.0938  170.4686 C.3     1  UNL1        0.1110
     23 N         140.8704  140.6983  169.3842 N.am    1  UNL1       -0.2979
     24 C         140.4509  140.5705  167.9498 C.2     1  UNL1        0.2637
     25 O         139.1895  139.8381  167.5998 O.2     1  UNL1       -0.2685
     26 H         141.6983  141.1790  169.6140 H       1  UNL1        0.1498
     27 C         143.3630  136.2294  155.5956 C.ar    1  UNL1        0.0516
     28 C         142.5321  136.0928  154.3542 C.ar    1  UNL1        0.0160
     29 C         142.1321  134.7323  153.8654 C.ar    1  UNL1        0.0157
     30 C         142.5630  133.5084  154.6179 C.ar    1  UNL1        0.0519
     31 C         143.3938  133.6449  155.8593 C.ar    1  UNL1        0.0859
     32 C         143.7938  135.0054  156.3482 C.ar    1  UNL1        0.0198
     33 N         142.1630  132.1479  154.1290 N.pl3   1  UNL1       -0.3047
     34 C         140.8721  131.5361  154.5865 C.3     1  UNL1        0.1081
     35 C         140.4721  130.1756  154.0976 C.3     1  UNL1        0.0938
     36 N         141.3630  129.4268  153.1512 N.3     1  UNL1       -0.2686
     37 C         140.9630  128.0663  152.6624 C.3     1  UNL1        0.0897
     38 C         142.6539  130.0386  152.6936 C.3     1  UNL1        0.0938
     39 C         143.0539  131.3991  153.1825 C.3     1  UNL1        0.1081
     40 C         143.8246  132.4210  156.6118 C.3     1  UNL1        0.4198
     41 F         144.2554  131.1970  157.3643 F       1  UNL1       -0.1658
     42 F         145.1163  132.4068  155.8493 F       1  UNL1       -0.1658
     43 F         142.5330  132.4351  157.3743 F       1  UNL1       -0.1658
@<TRIPOS>BOND
     1    22    23    1
     2    23    24   am
     3    24    25    2
     4    24    16    1
     5    16    17   ar
     6    17    18   ar
     7    18     7    1
     8     7     8   ar
     9     8     9   ar
    10     9    10   ar
    11    10    11   ar
    12    11    12   ar
    13    12     1    1
    14     1     2   am
    15     2     3    2
    16     2     4   am
    17     4    27    1
    18    27    28   ar
    19    28    29   ar
    20    29    30   ar
    21    30    33    1
    22    33    34    1
    23    34    35    1
    24    35    36    1
    25    36    37    1
    26    36    38    1
    27    38    39    1
    28    30    31   ar
    29    31    40    1
    30    40    41    1
    31    40    42    1
    32    40    43    1
    33    31    32   ar
    34    12    13   ar
    35    13    14   ar
    36    14    15   ar
    37    18    19   ar
    38    19    20   ar
    39    20    21   ar
    40    21    16   ar
    41    15     7   ar
    42    15    10   ar
    43    32    27   ar
    44    39    33    1
    45    23    26    1
    46     1     5    1
    47     4     6    1
@<TRIPOS>MOLECULE
*****
 43 47 0 0 0
SMALL
GASTEIGER

@<TRIPOS>ATOM
      1 N         139.9931  140.4543  158.7513 N.am    1  UNL1       -0.2681
      2 C         140.2010  140.4923  160.2363 C.2     1  UNL1        0.3082
      3 O         141.1510  139.5299  160.8855 O.2     1  UNL1       -0.2522
      4 N         139.4590  141.4927  161.0721 N.am    1  UNL1       -0.2681
      5 H         139.3696  141.0859  158.3251 H       1  UNL1        0.1564
      6 H         138.8355  142.1244  160.6460 H       1  UNL1        0.1564
      7 N         143.1771  136.6789  155.3877 N.ar    1  UNL1       -0.3048
      8 C         144.3656  137.5525  155.1156 C.ar    1  UNL1        0.0801
      9 C         144.1421  138.8666  155.8036 C.ar    1  UNL1        0.0205
     10 C         142.8154  138.8050  156.5009 C.ar    1  UNL1        0.0188
     11 C         142.0735  139.8055  157.3367 C.ar    1  UNL1        0.0162
     12 C         140.7351  139.4538  157.9154 C.ar    1  UNL1        0.0517
     13 C         140.1387  138.1017  157.6584 C.ar    1  UNL1        0.0162
     14 C         140.8806  137.1013  156.8226 C.ar    1  UNL1        0.0188
     15 C         142.2190  137.4529  156.2439 C.ar    1  UNL1        0.0641
     16 C         143.3312  132.7188  155.1773 C.ar    1  UNL1        0.1359
     17 C         143.5273  134.1205  155.6741 C.ar    1  UNL1        0.0413
     18 C         142.9810  135.2772  154.8909 C.ar    1  UNL1        0.0672
     19 C         142.2384  135.0322  153.6108 C.ar    1  UNL1        0.0382
     20 C         142.0423  133.6305  153.1140 C.ar    1  UNL1        0.1005
     21 N         142.5887  132.4738  153.8972 N.ar    1  UNL1       -0.2392
     22 C         143.8220  130.0463  158.0699 C.3     1  UNL1        0.1110
     23 N         143.2756  131.2030  157.2866 N.am    1  UNL1       -0.2979
     24 C         143.8777  131.5621  155.9606 C.2     1  UNL1        0.2637
     25 O         145.0263  130.7646  155.4177 O.2     1  UNL1       -0.2685
     26 H         142.5218  131.7264  157.6429 H       1  UNL1        0.1498
     27 C         139.6669  141.5308  162.5571 C.ar    1  UNL1        0.0516
     28 C         138.5220  141.2428  163.4824 C.ar    1  UNL1        0.0160
     29 C         138.7299  141.2809  164.9674 C.ar    1  UNL1        0.0157
     30 C         140.0828  141.6069  165.5272 C.ar    1  UNL1        0.0519
     31 C         141.2278  141.8948  164.6019 C.ar    1  UNL1        0.0859
     32 C         141.0199  141.8568  163.1169 C.ar    1  UNL1        0.0198
     33 N         140.2907  141.6449  167.0122 N.pl3   1  UNL1       -0.3047
     34 C         140.3286  142.9610  167.7308 C.3     1  UNL1        0.1081
     35 C         140.5365  142.9991  169.2158 C.3     1  UNL1        0.0938
     36 N         140.7066  141.7210  169.9823 N.3     1  UNL1       -0.2686
     37 C         140.9145  141.7591  171.4673 C.3     1  UNL1        0.0897
     38 C         140.6687  140.4048  169.2638 C.3     1  UNL1        0.0938
     39 C         140.4608  140.3667  167.7787 C.3     1  UNL1        0.1081
     40 C         142.5807  142.2208  165.1617 C.3     1  UNL1        0.4198
     41 F         143.9336  142.5468  165.7215 F       1  UNL1       -0.1658
     42 F         142.2959  143.6844  164.9978 F       1  UNL1       -0.1658
     43 F         142.8656  140.7573  165.3256 F       1  UNL1       -0.1658
@<TRIPOS>BOND
     1    22    23    1
     2    23    24   am
     3    24    25    2
     4    24    16    1
     5    16    17   ar
     6    17    18   ar
     7    18     7    1
     8     7     8   ar
     9     8     9   ar
    10     9    10   ar
    11    10    11   ar
    12    11    12   ar
    13    12     1    1
    14     1     2   am
    15     2     3    2
    16     2     4   am
    17     4    27    1
    18    27    28   ar
    19    28    29   ar
    20    29    30   ar
    21    30    33    1
    22    33    34    1
    23    34    35    1
    24    35    36    1
    25    36    37    1
    26    36    38    1
    27    38    39    1
    28    30    31   ar
    29    31    40    1
    30    40    41    1
    31    40    42    1
    32    40    43    1
    33    31    32   ar
    34    12    13   ar
    35    13    14   ar
    36    14    15   ar
    37    18    19   ar
    38    19    20   ar
    39    20    21   ar
    40    21    16   ar
    41    15     7   ar
    42    15    10   ar
    43    32    27   ar
    44    39    33    1
    45    23    26    1
    46     1     5    1
    47     4     6    1
