@<TRIPOS>MOLECULE
*****
 29 32 0 0 0
SMALL
GASTEIGER

@<TRIPOS>ATOM
      1 N         141.7330  140.7425  166.5754 N.3     1  UNL1       -0.2453
      2 H         141.9031  139.9204  165.9961 H       1  UNL1        0.1309
      3 O         139.9584  139.8623  168.8284 O.2     1  UNL1       -0.2944
      4 P         140.8457  140.3024  167.7019 P.3     1  UNL1        0.2089
      5 C         141.5242  141.2778  168.6174 C.ar    1  UNL1        0.0464
      6 C         140.7518  142.4270  169.1943 C.ar    1  UNL1        0.0044
      7 C         141.4302  143.4024  170.1098 C.ar    1  UNL1        0.0002
      8 C         142.8811  143.2286  170.4485 C.ar    1  UNL1        0.0000
      9 C         143.6535  142.0795  169.8717 C.ar    1  UNL1        0.0002
     10 C         142.9751  141.1040  168.9561 C.ar    1  UNL1        0.0044
     11 C         140.1672  139.3270  166.7863 C.ar    1  UNL1        0.0464
     12 C         138.7006  139.0513  166.9381 C.ar    1  UNL1        0.0044
     13 C         138.0221  138.0759  166.0226 C.ar    1  UNL1        0.0002
     14 C         138.8102  137.3762  164.9552 C.ar    1  UNL1        0.0000
     15 C         140.2768  137.6519  164.8034 C.ar    1  UNL1        0.0002
     16 C         140.9554  138.6273  165.7189 C.ar    1  UNL1        0.0044
     17 C         141.2863  141.8375  165.6527 C.3     1  UNL1        0.1014
     18 C         142.2502  142.9102  165.2399 C.ar    1  UNL1       -0.0060
     19 C         143.6800  142.8470  165.6888 C.ar    1  UNL1       -0.0029
     20 C         144.6438  143.9197  165.2760 C.ar    1  UNL1       -0.0003
     21 C         144.1777  145.0556  164.4143 C.ar    1  UNL1       -0.0000
     22 C         142.7479  145.1188  163.9654 C.ar    1  UNL1       -0.0002
     23 C         141.7841  144.0461  164.3782 C.ar    1  UNL1       -0.0012
     24 C         140.3542  144.1093  163.9293 C.ar    1  UNL1        0.0189
     25 C         139.2655  144.3695  164.9277 C.ar    1  UNL1        0.0031
     26 C         137.8357  144.4326  164.4789 C.ar    1  UNL1        0.0207
     27 C         137.4945  144.2356  163.0315 C.ar    1  UNL1        0.0989
     28 N         138.5832  143.9754  162.0330 N.ar    1  UNL1       -0.2423
     29 C         140.0132  143.9123  162.4819 C.ar    1  UNL1        0.0988
@<TRIPOS>BOND
     1     3     4    2
     2     4     1    1
     3     1    17    1
     4    17    18    1
     5    18    19   ar
     6    19    20   ar
     7    20    21   ar
     8    21    22   ar
     9    22    23   ar
    10    23    24    1
    11    24    25   ar
    12    25    26   ar
    13    26    27   ar
    14    27    28   ar
    15    28    29   ar
    16     4     5    1
    17     5     6   ar
    18     6     7   ar
    19     7     8   ar
    20     8     9   ar
    21     9    10   ar
    22     4    11    1
    23    11    12   ar
    24    12    13   ar
    25    13    14   ar
    26    14    15   ar
    27    15    16   ar
    28    23    18   ar
    29    29    24   ar
    30    10     5   ar
    31    16    11   ar
    32     1     2    1
@<TRIPOS>MOLECULE
*****
 29 32 0 0 0
SMALL
GASTEIGER

@<TRIPOS>ATOM
      1 N         141.8088  140.7395  166.5095 N.3     1  UNL1       -0.2453
      2 H         142.0477  139.9077  165.9696 H       1  UNL1        0.1309
      3 O         139.9594  139.8500  168.6977 O.2     1  UNL1       -0.2944
      4 P         140.8841  140.2948  167.6036 P.3     1  UNL1        0.2089
      5 C         140.2363  139.3240  166.6614 C.ar    1  UNL1        0.0464
      6 C         138.7555  139.0923  166.7242 C.ar    1  UNL1        0.0044
      7 C         138.1077  138.1215  165.7820 C.ar    1  UNL1        0.0002
      8 C         138.9405  137.3823  164.7770 C.ar    1  UNL1        0.0000
      9 C         140.4211  137.6140  164.7141 C.ar    1  UNL1        0.0002
     10 C         141.0690  138.5848  165.6563 C.ar    1  UNL1        0.0044
     11 C         141.5320  141.2656  168.5458 C.ar    1  UNL1        0.0464
     12 C         140.7410  142.4122  169.1022 C.ar    1  UNL1        0.0044
     13 C         141.3889  143.3830  170.0444 C.ar    1  UNL1        0.0002
     14 C         142.8277  143.2072  170.4302 C.ar    1  UNL1        0.0000
     15 C         143.6187  142.0606  169.8738 C.ar    1  UNL1        0.0002
     16 C         142.9708  141.0897  168.9316 C.ar    1  UNL1        0.0044
     17 C         141.3615  141.7803  165.5263 C.3     1  UNL1        0.1014
     18 C         142.2821  142.9044  165.1531 C.ar    1  UNL1       -0.0060
     19 C         143.7190  142.8708  165.5821 C.ar    1  UNL1       -0.0029
     20 C         144.6395  143.9949  165.2090 C.ar    1  UNL1       -0.0003
     21 C         144.1230  145.1524  164.4069 C.ar    1  UNL1       -0.0000
     22 C         142.6860  145.1860  163.9780 C.ar    1  UNL1       -0.0002
     23 C         141.7656  144.0619  164.3511 C.ar    1  UNL1       -0.0012
     24 C         140.3285  144.0954  163.9222 C.ar    1  UNL1        0.0189
     25 C         139.2560  144.4227  164.9184 C.ar    1  UNL1        0.0031
     26 C         137.8190  144.4562  164.4895 C.ar    1  UNL1        0.0207
     27 C         137.4546  144.1624  163.0644 C.ar    1  UNL1        0.0989
     28 N         138.5271  143.8350  162.0682 N.ar    1  UNL1       -0.2423
     29 C         139.9642  143.8016  162.4971 C.ar    1  UNL1        0.0988
@<TRIPOS>BOND
     1     3     4    2
     2     4     1    1
     3     1    17    1
     4    17    18    1
     5    18    19   ar
     6    19    20   ar
     7    20    21   ar
     8    21    22   ar
     9    22    23   ar
    10    23    24    1
    11    24    25   ar
    12    25    26   ar
    13    26    27   ar
    14    27    28   ar
    15    28    29   ar
    16     4     5    1
    17     5     6   ar
    18     6     7   ar
    19     7     8   ar
    20     8     9   ar
    21     9    10   ar
    22     4    11    1
    23    11    12   ar
    24    12    13   ar
    25    13    14   ar
    26    14    15   ar
    27    15    16   ar
    28    23    18   ar
    29    29    24   ar
    30    10     5   ar
    31    16    11   ar
    32     1     2    1
@<TRIPOS>MOLECULE
*****
 29 32 0 0 0
SMALL
GASTEIGER

@<TRIPOS>ATOM
      1 N         141.5815  142.8125  166.3768 N.3     1  UNL1       -0.2453
      2 H         141.6626  143.6731  165.8353 H       1  UNL1        0.1309
      3 O         143.8170  141.0183  165.4915 O.2     1  UNL1       -0.2944
      4 P         142.6992  141.9155  165.9342 P.3     1  UNL1        0.2089
      5 C         142.7828  141.3378  167.3159 C.ar    1  UNL1        0.0464
      6 C         142.4895  139.8838  167.5400 C.ar    1  UNL1        0.0044
      7 C         142.5732  139.3062  168.9217 C.ar    1  UNL1        0.0002
      8 C         142.9501  140.1823  170.0794 C.ar    1  UNL1        0.0000
      9 C         143.2434  141.6362  169.8554 C.ar    1  UNL1        0.0002
     10 C         143.1597  142.2139  168.4736 C.ar    1  UNL1        0.0044
     11 C         142.6156  142.4931  164.5524 C.ar    1  UNL1        0.0464
     12 C         142.8430  143.9602  164.3378 C.ar    1  UNL1        0.0044
     13 C         142.7594  144.5379  162.9561 C.ar    1  UNL1        0.0002
     14 C         142.4483  143.6486  161.7889 C.ar    1  UNL1        0.0000
     15 C         142.2209  142.1816  162.0034 C.ar    1  UNL1        0.0002
     16 C         142.3046  141.6038  163.3852 C.ar    1  UNL1        0.0044
     17 C         140.1584  142.3550  166.2523 C.3     1  UNL1        0.1014
     18 C         139.3306  142.7900  165.0794 C.ar    1  UNL1       -0.0060
     19 C         139.2394  144.2445  164.7241 C.ar    1  UNL1       -0.0029
     20 C         138.4117  144.6795  163.5513 C.ar    1  UNL1       -0.0003
     21 C         137.6751  143.6600  162.7338 C.ar    1  UNL1       -0.0000
     22 C         137.7663  142.2056  163.0891 C.ar    1  UNL1       -0.0002
     23 C         138.5941  141.7706  164.2620 C.ar    1  UNL1       -0.0012
     24 C         138.6853  140.3161  164.6173 C.ar    1  UNL1        0.0189
     25 C         138.0648  139.8140  165.8873 C.ar    1  UNL1        0.0031
     26 C         138.1560  138.3596  166.2427 C.ar    1  UNL1        0.0207
     27 C         138.8678  137.4072  165.3281 C.ar    1  UNL1        0.0989
     28 N         139.4883  137.9093  164.0581 N.ar    1  UNL1       -0.2423
     29 C         139.3971  139.3638  163.7028 C.ar    1  UNL1        0.0988
@<TRIPOS>BOND
     1     3     4    2
     2     4     1    1
     3     1    17    1
     4    17    18    1
     5    18    19   ar
     6    19    20   ar
     7    20    21   ar
     8    21    22   ar
     9    22    23   ar
    10    23    24    1
    11    24    25   ar
    12    25    26   ar
    13    26    27   ar
    14    27    28   ar
    15    28    29   ar
    16     4     5    1
    17     5     6   ar
    18     6     7   ar
    19     7     8   ar
    20     8     9   ar
    21     9    10   ar
    22     4    11    1
    23    11    12   ar
    24    12    13   ar
    25    13    14   ar
    26    14    15   ar
    27    15    16   ar
    28    23    18   ar
    29    29    24   ar
    30    10     5   ar
    31    16    11   ar
    32     1     2    1
@<TRIPOS>MOLECULE
*****
 29 32 0 0 0
SMALL
GASTEIGER

@<TRIPOS>ATOM
      1 N         141.5747  142.8017  166.3689 N.3     1  UNL1       -0.2453
      2 H         141.6705  143.6544  165.8174 H       1  UNL1        0.1309
      3 O         143.7532  140.9429  165.4749 O.2     1  UNL1       -0.2944
      4 P         142.6639  141.8723  165.9219 P.3     1  UNL1        0.2089
      5 C         142.5824  142.4428  164.5371 C.ar    1  UNL1        0.0464
      6 C         142.8463  143.9020  164.3103 C.ar    1  UNL1        0.0044
      7 C         142.7648  144.4725  162.9254 C.ar    1  UNL1        0.0002
      8 C         142.4195  143.5839  161.7673 C.ar    1  UNL1        0.0000
      9 C         142.1556  142.1249  161.9941 C.ar    1  UNL1        0.0002
     10 C         142.2371  141.5543  163.3790 C.ar    1  UNL1        0.0044
     11 C         142.7454  141.3018  167.3068 C.ar    1  UNL1        0.0464
     12 C         143.1379  142.1800  168.4578 C.ar    1  UNL1        0.0044
     13 C         143.2194  141.6095  169.8427 C.ar    1  UNL1        0.0002
     14 C         142.9084  140.1608  170.0765 C.ar    1  UNL1        0.0000
     15 C         142.5159  139.2827  168.9256 C.ar    1  UNL1        0.0002
     16 C         142.4344  139.8532  167.5406 C.ar    1  UNL1        0.0044
     17 C         140.1392  142.3789  166.2668 C.3     1  UNL1        0.1014
     18 C         139.3137  142.8051  165.0890 C.ar    1  UNL1       -0.0060
     19 C         139.2199  144.2573  164.7251 C.ar    1  UNL1       -0.0029
     20 C         138.3945  144.6834  163.5474 C.ar    1  UNL1       -0.0003
     21 C         137.6629  143.6575  162.7337 C.ar    1  UNL1       -0.0000
     22 C         137.7567  142.2054  163.0976 C.ar    1  UNL1       -0.0002
     23 C         138.5821  141.7792  164.2753 C.ar    1  UNL1       -0.0012
     24 C         138.6760  140.3270  164.6392 C.ar    1  UNL1        0.0189
     25 C         138.0556  139.8312  165.9117 C.ar    1  UNL1        0.0031
     26 C         138.1494  138.3791  166.2757 C.ar    1  UNL1        0.0207
     27 C         138.8637  137.4227  165.3672 C.ar    1  UNL1        0.0989
     28 N         139.4841  137.9186  164.0947 N.ar    1  UNL1       -0.2423
     29 C         139.3902  139.3708  163.7308 C.ar    1  UNL1        0.0988
@<TRIPOS>BOND
     1     3     4    2
     2     4     1    1
     3     1    17    1
     4    17    18    1
     5    18    19   ar
     6    19    20   ar
     7    20    21   ar
     8    21    22   ar
     9    22    23   ar
    10    23    24    1
    11    24    25   ar
    12    25    26   ar
    13    26    27   ar
    14    27    28   ar
    15    28    29   ar
    16     4     5    1
    17     5     6   ar
    18     6     7   ar
    19     7     8   ar
    20     8     9   ar
    21     9    10   ar
    22     4    11    1
    23    11    12   ar
    24    12    13   ar
    25    13    14   ar
    26    14    15   ar
    27    15    16   ar
    28    23    18   ar
    29    29    24   ar
    30    10     5   ar
    31    16    11   ar
    32     1     2    1
@<TRIPOS>MOLECULE
*****
 29 32 0 0 0
SMALL
GASTEIGER

@<TRIPOS>ATOM
      1 N         139.6890  141.8015  165.2763 N.3     1  UNL1       -0.2453
      2 H         139.3556  141.2073  166.0353 H       1  UNL1        0.1309
      3 O         138.5490  140.6834  162.7365 O.2     1  UNL1       -0.2944
      4 P         139.1190  141.2425  164.0064 P.3     1  UNL1        0.2089
      5 C         138.8585  139.9372  164.6980 C.ar    1  UNL1        0.0464
      6 C         139.3476  138.6558  164.0905 C.ar    1  UNL1        0.0044
      7 C         139.0871  137.3505  164.7820 C.ar    1  UNL1        0.0002
      8 C         138.3374  137.3265  166.0810 C.ar    1  UNL1        0.0000
      9 C         137.8483  138.6077  166.6885 C.ar    1  UNL1        0.0002
     10 C         138.1088  139.9131  165.9970 C.ar    1  UNL1        0.0044
     11 C         139.3795  142.5478  163.3149 C.ar    1  UNL1        0.0464
     12 C         138.6699  143.7901  163.7657 C.ar    1  UNL1        0.0044
     13 C         138.9304  145.0954  163.0742 C.ar    1  UNL1        0.0002
     14 C         139.9006  145.1585  161.9319 C.ar    1  UNL1        0.0000
     15 C         140.6102  143.9163  161.4811 C.ar    1  UNL1        0.0002
     16 C         140.3497  142.6109  162.1726 C.ar    1  UNL1        0.0044
     17 C         141.1749  141.9225  165.4420 C.3     1  UNL1        0.1014
     18 C         141.9918  140.7133  165.7895 C.ar    1  UNL1       -0.0060
     19 C         142.6830  139.9387  164.7068 C.ar    1  UNL1       -0.0029
     20 C         143.4998  138.7296  165.0543 C.ar    1  UNL1       -0.0003
     21 C         143.6254  138.2951  166.4845 C.ar    1  UNL1       -0.0000
     22 C         142.9342  139.0697  167.5672 C.ar    1  UNL1       -0.0002
     23 C         142.1174  140.2788  167.2196 C.ar    1  UNL1       -0.0012
     24 C         141.4262  141.0535  168.3023 C.ar    1  UNL1        0.0189
     25 C         140.1227  140.5635  168.8598 C.ar    1  UNL1        0.0031
     26 C         139.4315  141.3382  169.9424 C.ar    1  UNL1        0.0207
     27 C         140.0438  142.6028  170.4677 C.ar    1  UNL1        0.0989
     28 N         141.3473  143.0928  169.9102 N.ar    1  UNL1       -0.2423
     29 C         142.0385  142.3181  168.8275 C.ar    1  UNL1        0.0988
@<TRIPOS>BOND
     1     3     4    2
     2     4     1    1
     3     1    17    1
     4    17    18    1
     5    18    19   ar
     6    19    20   ar
     7    20    21   ar
     8    21    22   ar
     9    22    23   ar
    10    23    24    1
    11    24    25   ar
    12    25    26   ar
    13    26    27   ar
    14    27    28   ar
    15    28    29   ar
    16     4     5    1
    17     5     6   ar
    18     6     7   ar
    19     7     8   ar
    20     8     9   ar
    21     9    10   ar
    22     4    11    1
    23    11    12   ar
    24    12    13   ar
    25    13    14   ar
    26    14    15   ar
    27    15    16   ar
    28    23    18   ar
    29    29    24   ar
    30    10     5   ar
    31    16    11   ar
    32     1     2    1
@<TRIPOS>MOLECULE
*****
 29 32 0 0 0
SMALL
GASTEIGER

@<TRIPOS>ATOM
      1 N         141.6213  142.3340  165.3232 N.3     1  UNL1       -0.2453
      2 H         140.8024  142.7378  165.7779 H       1  UNL1        0.1309
      3 O         141.4778  143.1136  162.4298 O.2     1  UNL1       -0.2944
      4 P         141.5495  142.7238  163.8766 P.3     1  UNL1        0.2089
      5 C         142.9792  142.3084  163.6937 C.ar    1  UNL1        0.0464
      6 C         143.3352  141.2802  162.6611 C.ar    1  UNL1        0.0044
      7 C         144.7649  140.8648  162.4782 C.ar    1  UNL1        0.0002
      8 C         145.8385  141.4774  163.3279 C.ar    1  UNL1        0.0000
      9 C         145.4825  142.5055  164.3605 C.ar    1  UNL1        0.0002
     10 C         144.0528  142.9210  164.5434 C.ar    1  UNL1        0.0044
     11 C         140.1199  143.1393  164.0594 C.ar    1  UNL1        0.0464
     12 C         139.0429  142.5066  163.2288 C.ar    1  UNL1        0.0044
     13 C         137.6132  142.9221  163.4117 C.ar    1  UNL1        0.0002
     14 C         137.2605  143.9702  164.4251 C.ar    1  UNL1        0.0000
     15 C         138.3374  144.6028  165.2557 C.ar    1  UNL1        0.0002
     16 C         139.7672  144.1873  165.0729 C.ar    1  UNL1        0.0044
     17 C         141.6600  140.8848  165.7085 C.3     1  UNL1        0.1014
     18 C         140.4075  140.1961  166.1636 C.ar    1  UNL1       -0.0060
     19 C         139.5930  139.3993  165.1882 C.ar    1  UNL1       -0.0029
     20 C         138.3406  138.7106  165.6433 C.ar    1  UNL1       -0.0003
     21 C         137.9028  138.8187  167.0740 C.ar    1  UNL1       -0.0000
     22 C         138.7173  139.6155  168.0494 C.ar    1  UNL1       -0.0002
     23 C         139.9697  140.3042  167.5942 C.ar    1  UNL1       -0.0012
     24 C         140.7843  141.1011  168.5697 C.ar    1  UNL1        0.0189
     25 C         140.4653  142.5473  168.8080 C.ar    1  UNL1        0.0031
     26 C         141.2799  143.3442  169.7834 C.ar    1  UNL1        0.0207
     27 C         142.4135  142.6949  170.5205 C.ar    1  UNL1        0.0989
     28 N         142.7326  141.2487  170.2822 N.ar    1  UNL1       -0.2423
     29 C         141.9179  140.4518  169.3068 C.ar    1  UNL1        0.0988
@<TRIPOS>BOND
     1     3     4    2
     2     4     1    1
     3     1    17    1
     4    17    18    1
     5    18    19   ar
     6    19    20   ar
     7    20    21   ar
     8    21    22   ar
     9    22    23   ar
    10    23    24    1
    11    24    25   ar
    12    25    26   ar
    13    26    27   ar
    14    27    28   ar
    15    28    29   ar
    16     4     5    1
    17     5     6   ar
    18     6     7   ar
    19     7     8   ar
    20     8     9   ar
    21     9    10   ar
    22     4    11    1
    23    11    12   ar
    24    12    13   ar
    25    13    14   ar
    26    14    15   ar
    27    15    16   ar
    28    23    18   ar
    29    29    24   ar
    30    10     5   ar
    31    16    11   ar
    32     1     2    1
@<TRIPOS>MOLECULE
*****
 29 32 0 0 0
SMALL
GASTEIGER

@<TRIPOS>ATOM
      1 N         139.6184  141.8026  165.2694 N.3     1  UNL1       -0.2453
      2 H         139.2717  141.2129  166.0261 H       1  UNL1        0.1309
      3 O         138.5477  140.6515  162.7143 O.2     1  UNL1       -0.2944
      4 P         139.0830  141.2271  163.9919 P.3     1  UNL1        0.2089
      5 C         139.3335  142.5333  163.2985 C.ar    1  UNL1        0.0464
      6 C         140.2909  142.5989  162.1455 C.ar    1  UNL1        0.0044
      7 C         140.5414  143.9052  161.4521 C.ar    1  UNL1        0.0002
      8 C         139.8346  145.1459  161.9115 C.ar    1  UNL1        0.0000
      9 C         138.8773  145.0803  163.0644 C.ar    1  UNL1        0.0002
     10 C         138.6267  143.7740  163.7579 C.ar    1  UNL1        0.0044
     11 C         138.8325  139.9208  164.6854 C.ar    1  UNL1        0.0464
     12 C         139.3098  138.6400  164.0675 C.ar    1  UNL1        0.0044
     13 C         139.0593  137.3337  164.7609 C.ar    1  UNL1        0.0002
     14 C         138.3315  137.3082  166.0722 C.ar    1  UNL1        0.0000
     15 C         137.8542  138.5889  166.6901 C.ar    1  UNL1        0.0002
     16 C         138.1047  139.8953  165.9967 C.ar    1  UNL1        0.0044
     17 C         141.0989  141.9373  165.4690 C.3     1  UNL1        0.1014
     18 C         141.9241  140.7290  165.7997 C.ar    1  UNL1       -0.0060
     19 C         142.5883  139.9512  164.7026 C.ar    1  UNL1       -0.0029
     20 C         143.4135  138.7431  165.0333 C.ar    1  UNL1       -0.0003
     21 C         143.5744  138.3127  166.4613 C.ar    1  UNL1       -0.0000
     22 C         142.9101  139.0905  167.5584 C.ar    1  UNL1       -0.0002
     23 C         142.0850  140.2987  167.2276 C.ar    1  UNL1       -0.0012
     24 C         141.4207  141.0766  168.3248 C.ar    1  UNL1        0.0189
     25 C         140.1004  140.6222  168.8729 C.ar    1  UNL1        0.0031
     26 C         139.4361  141.4000  169.9700 C.ar    1  UNL1        0.0207
     27 C         140.0921  142.6323  170.5190 C.ar    1  UNL1        0.0989
     28 N         141.4124  143.0866  169.9709 N.ar    1  UNL1       -0.2423
     29 C         142.0767  142.3087  168.8738 C.ar    1  UNL1        0.0988
@<TRIPOS>BOND
     1     3     4    2
     2     4     1    1
     3     1    17    1
     4    17    18    1
     5    18    19   ar
     6    19    20   ar
     7    20    21   ar
     8    21    22   ar
     9    22    23   ar
    10    23    24    1
    11    24    25   ar
    12    25    26   ar
    13    26    27   ar
    14    27    28   ar
    15    28    29   ar
    16     4     5    1
    17     5     6   ar
    18     6     7   ar
    19     7     8   ar
    20     8     9   ar
    21     9    10   ar
    22     4    11    1
    23    11    12   ar
    24    12    13   ar
    25    13    14   ar
    26    14    15   ar
    27    15    16   ar
    28    23    18   ar
    29    29    24   ar
    30    10     5   ar
    31    16    11   ar
    32     1     2    1
@<TRIPOS>MOLECULE
*****
 29 32 0 0 0
SMALL
GASTEIGER

@<TRIPOS>ATOM
      1 N         141.6126  142.3366  165.3381 N.3     1  UNL1       -0.2453
      2 H         140.7858  142.7430  165.7760 H       1  UNL1        0.1309
      3 O         141.4918  143.0537  162.4275 O.2     1  UNL1       -0.2944
      4 P         141.5522  142.6951  163.8828 P.3     1  UNL1        0.2089
      5 C         140.1223  143.1178  164.0463 C.ar    1  UNL1        0.0464
      6 C         139.0539  142.4926  163.1991 C.ar    1  UNL1        0.0044
      7 C         137.6240  142.9152  163.3626 C.ar    1  UNL1        0.0002
      8 C         137.2625  143.9631  164.3732 C.ar    1  UNL1        0.0000
      9 C         138.3308  144.5883  165.2203 C.ar    1  UNL1        0.0002
     10 C         139.7608  144.1657  165.0569 C.ar    1  UNL1        0.0044
     11 C         142.9821  142.2725  163.7194 C.ar    1  UNL1        0.0464
     12 C         144.0536  142.9142  164.5502 C.ar    1  UNL1        0.0044
     13 C         145.4834  142.4916  164.3867 C.ar    1  UNL1        0.0002
     14 C         145.8419  141.4272  163.3925 C.ar    1  UNL1        0.0000
     15 C         144.7705  140.7854  162.5617 C.ar    1  UNL1        0.0002
     16 C         143.3406  141.2081  162.7251 C.ar    1  UNL1        0.0044
     17 C         141.6594  140.8963  165.7544 C.3     1  UNL1        0.1014
     18 C         140.4033  140.1992  166.1862 C.ar    1  UNL1       -0.0060
     19 C         139.6034  139.4107  165.1921 C.ar    1  UNL1       -0.0029
     20 C         138.3474  138.7137  165.6239 C.ar    1  UNL1       -0.0003
     21 C         137.8913  138.8052  167.0500 C.ar    1  UNL1       -0.0000
     22 C         138.6912  139.5937  168.0441 C.ar    1  UNL1       -0.0002
     23 C         139.9472  140.2907  167.6123 C.ar    1  UNL1       -0.0012
     24 C         140.7471  141.0793  168.6064 C.ar    1  UNL1        0.0189
     25 C         140.4742  142.5418  168.7976 C.ar    1  UNL1        0.0031
     26 C         141.2741  143.3304  169.7917 C.ar    1  UNL1        0.0207
     27 C         142.3470  142.6564  170.5947 C.ar    1  UNL1        0.0989
     28 N         142.6199  141.1939  170.4036 N.ar    1  UNL1       -0.2423
     29 C         141.8200  140.4053  169.4094 C.ar    1  UNL1        0.0988
@<TRIPOS>BOND
     1     3     4    2
     2     4     1    1
     3     1    17    1
     4    17    18    1
     5    18    19   ar
     6    19    20   ar
     7    20    21   ar
     8    21    22   ar
     9    22    23   ar
    10    23    24    1
    11    24    25   ar
    12    25    26   ar
    13    26    27   ar
    14    27    28   ar
    15    28    29   ar
    16     4     5    1
    17     5     6   ar
    18     6     7   ar
    19     7     8   ar
    20     8     9   ar
    21     9    10   ar
    22     4    11    1
    23    11    12   ar
    24    12    13   ar
    25    13    14   ar
    26    14    15   ar
    27    15    16   ar
    28    23    18   ar
    29    29    24   ar
    30    10     5   ar
    31    16    11   ar
    32     1     2    1
@<TRIPOS>MOLECULE
*****
 29 32 0 0 0
SMALL
GASTEIGER

@<TRIPOS>ATOM
      1 N         141.5870  140.9885  165.8366 N.3     1  UNL1       -0.2453
      2 H         140.7373  140.7601  166.3525 H       1  UNL1        0.1309
      3 O         143.4979  142.1985  167.8075 O.2     1  UNL1       -0.2944
      4 P         142.5424  141.5935  166.8220 P.3     1  UNL1        0.2089
      5 C         143.6092  141.6256  165.7681 C.ar    1  UNL1        0.0464
      6 C         144.1933  142.9365  165.3317 C.ar    1  UNL1        0.0044
      7 C         145.2601  142.9685  164.2778 C.ar    1  UNL1        0.0002
      8 C         145.7429  141.6897  163.6602 C.ar    1  UNL1        0.0000
      9 C         145.1589  140.3788  164.0965 C.ar    1  UNL1        0.0002
     10 C         144.0920  140.3467  165.1505 C.ar    1  UNL1        0.0044
     11 C         141.4756  141.5615  167.8760 C.ar    1  UNL1        0.0464
     12 C         141.2978  142.7305  168.7990 C.ar    1  UNL1        0.0044
     13 C         140.2310  142.6984  169.8529 C.ar    1  UNL1        0.0002
     14 C         139.3419  141.4974  169.9839 C.ar    1  UNL1        0.0000
     15 C         139.5196  140.3285  169.0609 C.ar    1  UNL1        0.0002
     16 C         140.5865  140.3605  168.0069 C.ar    1  UNL1        0.0044
     17 C         141.1630  141.7683  164.6274 C.3     1  UNL1        0.1014
     18 C         139.8853  142.5539  164.6516 C.ar    1  UNL1       -0.0060
     19 C         139.8936  143.9857  165.0984 C.ar    1  UNL1       -0.0029
     20 C         138.6160  144.7712  165.1226 C.ar    1  UNL1       -0.0003
     21 C         137.3300  144.1248  164.7001 C.ar    1  UNL1       -0.0000
     22 C         137.3217  142.6929  164.2533 C.ar    1  UNL1       -0.0002
     23 C         138.5994  141.9075  164.2291 C.ar    1  UNL1       -0.0012
     24 C         138.5911  140.4755  163.7823 C.ar    1  UNL1        0.0189
     25 C         138.6748  139.3731  164.7960 C.ar    1  UNL1        0.0031
     26 C         138.6666  137.9412  164.3493 C.ar    1  UNL1        0.0207
     27 C         138.5746  137.6117  162.8888 C.ar    1  UNL1        0.0989
     28 N         138.4909  138.7141  161.8751 N.ar    1  UNL1       -0.2423
     29 C         138.4991  140.1461  162.3219 C.ar    1  UNL1        0.0988
@<TRIPOS>BOND
     1     3     4    2
     2     4     1    1
     3     1    17    1
     4    17    18    1
     5    18    19   ar
     6    19    20   ar
     7    20    21   ar
     8    21    22   ar
     9    22    23   ar
    10    23    24    1
    11    24    25   ar
    12    25    26   ar
    13    26    27   ar
    14    27    28   ar
    15    28    29   ar
    16     4     5    1
    17     5     6   ar
    18     6     7   ar
    19     7     8   ar
    20     8     9   ar
    21     9    10   ar
    22     4    11    1
    23    11    12   ar
    24    12    13   ar
    25    13    14   ar
    26    14    15   ar
    27    15    16   ar
    28    23    18   ar
    29    29    24   ar
    30    10     5   ar
    31    16    11   ar
    32     1     2    1
