@<TRIPOS>MOLECULE
*****
 26 28 0 0 0
SMALL
GASTEIGER

@<TRIPOS>ATOM
      1 C         140.7776  144.6870  163.4727 C.3     1  UNL1        0.0716
      2 C         141.7936  143.6544  163.8622 C.3     1  UNL1        0.0199
      3 C         141.5973  142.8413  165.1073 C.3     1  UNL1        0.0060
      4 C         140.3850  143.0608  165.9630 C.3     1  UNL1        0.0224
      5 C         139.3690  144.0934  165.5736 C.3     1  UNL1        0.0060
      6 C         139.5653  144.9065  164.3284 C.3     1  UNL1        0.0199
      7 C         140.1887  142.2478  167.2081 C.ar    1  UNL1       -0.0223
      8 C         139.7735  140.8099  167.1072 C.ar    1  UNL1       -0.0012
      9 C         139.5772  139.9968  168.3523 C.ar    1  UNL1        0.0363
     10 C         139.7960  140.6216  169.6984 C.ar    1  UNL1        0.1337
     11 O         139.5996  139.8085  170.9435 O.3     1  UNL1       -0.5055
     12 C         140.2111  142.0594  169.7993 C.ar    1  UNL1        0.0363
     13 C         140.4075  142.8726  168.5541 C.ar    1  UNL1       -0.0012
     14 H         139.3403  138.9103  170.8805 H       1  UNL1        0.2922
     15 O         139.2267  144.0278  160.9908 O.2     1  UNL1       -0.2751
     16 C         140.1985  145.1705  160.9866 C.2     1  UNL1        0.2228
     17 N         140.9739  145.5000  162.2276 N.am    1  UNL1       -0.3060
     18 H         141.6118  146.2500  162.2248 H       1  UNL1        0.1494
     19 C         140.3948  145.9835  159.7414 C.3     1  UNL1        0.0913
     20 C         140.6255  145.2986  158.4271 C.3     1  UNL1        0.0554
     21 C         140.3444  146.0232  157.1441 C.ar    1  UNL1        0.0595
     22 C         141.0995  145.6640  155.8988 C.ar    1  UNL1        0.0148
     23 C         140.8183  146.3886  154.6160 C.ar    1  UNL1        0.0028
     24 C         139.7821  147.4725  154.5784 C.ar    1  UNL1        0.0207
     25 C         139.0270  147.8318  155.8237 C.ar    1  UNL1        0.0984
     26 N         139.3082  147.1072  157.1065 N.ar    1  UNL1       -0.2481
@<TRIPOS>BOND
     1    15    16    2
     2    16    19    1
     3    19    20    1
     4    20    21    1
     5    21    22   ar
     6    22    23   ar
     7    23    24   ar
     8    24    25   ar
     9    25    26   ar
    10    16    17   am
    11     1    17    1
    12     1     2    1
    13     2     3    1
    14     3     4    1
    15     4     7    1
    16     7     8   ar
    17     8     9   ar
    18     9    10   ar
    19    10    11    1
    20    10    12   ar
    21    12    13   ar
    22     4     5    1
    23     5     6    1
    24    26    21   ar
    25     6     1    1
    26    13     7   ar
    27    17    18    1
    28    11    14    1
@<TRIPOS>MOLECULE
*****
 26 28 0 0 0
SMALL
GASTEIGER

@<TRIPOS>ATOM
      1 C         139.3106  140.0495  163.4510 C.3     1  UNL1        0.0716
      2 C         138.4887  139.3942  164.5211 C.3     1  UNL1        0.0199
      3 C         138.7034  139.7585  165.9603 C.3     1  UNL1        0.0060
      4 C         139.7399  140.7780  166.3293 C.3     1  UNL1        0.0224
      5 C         140.5617  141.4333  165.2592 C.3     1  UNL1        0.0060
      6 C         140.3471  141.0690  163.8200 C.3     1  UNL1        0.0199
      7 C         139.9545  141.1423  167.7685 C.ar    1  UNL1       -0.0223
      8 C         139.5756  140.1759  168.8514 C.ar    1  UNL1       -0.0012
      9 C         139.7902  140.5402  170.2905 C.ar    1  UNL1        0.0363
     10 C         140.3838  141.8709  170.6468 C.ar    1  UNL1        0.1337
     11 O         140.5985  142.2351  172.0861 O.3     1  UNL1       -0.5055
     12 C         140.7628  142.8372  169.5641 C.ar    1  UNL1        0.0363
     13 C         140.5481  142.4730  168.1248 C.ar    1  UNL1       -0.0012
     14 H         140.3617  141.6314  172.7625 H       1  UNL1        0.2922
     15 O         137.3011  141.5524  161.8070 O.2     1  UNL1       -0.2751
     16 C         138.0912  140.4366  161.1898 C.2     1  UNL1        0.2228
     17 N         139.0959  139.6852  162.0118 N.am    1  UNL1       -0.3060
     18 H         139.6145  138.9529  161.6068 H       1  UNL1        0.1494
     19 C         137.8765  140.0724  159.7506 C.3     1  UNL1        0.0913
     20 C         138.4408  140.9402  158.6651 C.3     1  UNL1        0.0554
     21 C         137.5704  141.3740  157.5230 C.ar    1  UNL1        0.0595
     22 C         137.7769  142.7187  156.8914 C.ar    1  UNL1        0.0148
     23 C         136.9065  143.1525  155.7493 C.ar    1  UNL1        0.0028
     24 C         135.8297  142.2415  155.2389 C.ar    1  UNL1        0.0207
     25 C         135.6232  140.8968  155.8706 C.ar    1  UNL1        0.0984
     26 N         136.4936  140.4630  157.0126 N.ar    1  UNL1       -0.2481
@<TRIPOS>BOND
     1    15    16    2
     2    16    19    1
     3    19    20    1
     4    20    21    1
     5    21    22   ar
     6    22    23   ar
     7    23    24   ar
     8    24    25   ar
     9    25    26   ar
    10    16    17   am
    11     1    17    1
    12     1     2    1
    13     2     3    1
    14     3     4    1
    15     4     7    1
    16     7     8   ar
    17     8     9   ar
    18     9    10   ar
    19    10    11    1
    20    10    12   ar
    21    12    13   ar
    22     4     5    1
    23     5     6    1
    24    26    21   ar
    25     6     1    1
    26    13     7   ar
    27    17    18    1
    28    11    14    1
@<TRIPOS>MOLECULE
*****
 26 28 0 0 0
SMALL
GASTEIGER

@<TRIPOS>ATOM
      1 C         139.2787  139.3808  163.8234 C.3     1  UNL1        0.0716
      2 C         140.6427  139.9649  164.0436 C.3     1  UNL1        0.0199
      3 C         141.1435  140.1957  165.4385 C.3     1  UNL1        0.0060
      4 C         140.2804  139.8425  166.6133 C.3     1  UNL1        0.0224
      5 C         138.9164  139.2584  166.3932 C.3     1  UNL1        0.0060
      6 C         138.4156  139.0275  164.9982 C.3     1  UNL1        0.0199
      7 C         140.7812  140.0734  168.0082 C.ar    1  UNL1       -0.0223
      8 C         142.2552  140.1665  168.2702 C.ar    1  UNL1       -0.0012
      9 C         142.7560  140.3974  169.6651 C.ar    1  UNL1        0.0363
     10 C         141.7828  140.5351  170.7982 C.ar    1  UNL1        0.1337
     11 O         142.2836  140.7660  172.1932 O.3     1  UNL1       -0.5055
     12 C         140.3088  140.4419  170.5363 C.ar    1  UNL1        0.0363
     13 C         139.8079  140.2111  169.1413 C.ar    1  UNL1       -0.0012
     14 H         143.2044  140.8241  172.3567 H       1  UNL1        0.2922
     15 O         137.2705  141.2571  162.6210 O.2     1  UNL1       -0.2751
     16 C         137.7738  140.0881  161.8273 C.2     1  UNL1        0.2228
     17 N         138.7780  139.1499  162.4285 N.am    1  UNL1       -0.3060
     18 H         139.1083  138.3826  161.9075 H       1  UNL1        0.1494
     19 C         137.2730  139.8573  160.4323 C.3     1  UNL1        0.0913
     20 C         138.1987  140.0306  159.2648 C.3     1  UNL1        0.0554
     21 C         137.8001  140.9082  158.1154 C.ar    1  UNL1        0.0595
     22 C         138.5062  142.2117  157.8870 C.ar    1  UNL1        0.0148
     23 C         138.1076  143.0892  156.7377 C.ar    1  UNL1        0.0028
     24 C         137.0029  142.6632  155.8167 C.ar    1  UNL1        0.0207
     25 C         136.2968  141.3597  156.0451 C.ar    1  UNL1        0.0984
     26 N         136.6954  140.4822  157.1945 N.ar    1  UNL1       -0.2481
@<TRIPOS>BOND
     1    15    16    2
     2    16    19    1
     3    19    20    1
     4    20    21    1
     5    21    22   ar
     6    22    23   ar
     7    23    24   ar
     8    24    25   ar
     9    25    26   ar
    10    16    17   am
    11     1    17    1
    12     1     2    1
    13     2     3    1
    14     3     4    1
    15     4     7    1
    16     7     8   ar
    17     8     9   ar
    18     9    10   ar
    19    10    11    1
    20    10    12   ar
    21    12    13   ar
    22     4     5    1
    23     5     6    1
    24    26    21   ar
    25     6     1    1
    26    13     7   ar
    27    17    18    1
    28    11    14    1
@<TRIPOS>MOLECULE
*****
 26 28 0 0 0
SMALL
GASTEIGER

@<TRIPOS>ATOM
      1 C         140.8996  144.4168  163.3282 C.3     1  UNL1        0.0716
      2 C         139.7536  144.7864  164.2227 C.3     1  UNL1        0.0199
      3 C         139.5215  144.0285  165.4962 C.3     1  UNL1        0.0060
      4 C         140.4355  142.9011  165.8752 C.3     1  UNL1        0.0224
      5 C         141.5815  142.5316  164.9808 C.3     1  UNL1        0.0060
      6 C         141.8136  143.2894  163.7073 C.3     1  UNL1        0.0199
      7 C         140.2034  142.1433  167.1487 C.ar    1  UNL1       -0.0223
      8 C         139.7119  140.7269  167.0997 C.ar    1  UNL1       -0.0012
      9 C         139.4798  139.9691  168.3732 C.ar    1  UNL1        0.0363
     10 C         139.7392  140.6275  169.6957 C.ar    1  UNL1        0.1337
     11 O         139.5072  139.8696  170.9692 O.3     1  UNL1       -0.5055
     12 C         140.2307  142.0438  169.7448 C.ar    1  UNL1        0.0363
     13 C         140.4628  142.8018  168.4713 C.ar    1  UNL1       -0.0012
     14 H         139.2001  138.9849  170.9385 H       1  UNL1        0.2922
     15 O         139.0726  144.0066  160.9845 O.2     1  UNL1       -0.2751
     16 C         140.2182  144.9696  160.8829 C.2     1  UNL1        0.2228
     17 N         141.1317  145.1747  162.0548 N.am    1  UNL1       -0.3060
     18 H         141.8836  145.8067  161.9881 H       1  UNL1        0.1494
     19 C         140.4502  145.7274  159.6093 C.3     1  UNL1        0.0913
     20 C         141.5329  145.2947  158.6657 C.3     1  UNL1        0.0554
     21 C         142.1674  143.9443  158.8208 C.ar    1  UNL1        0.0595
     22 C         141.8130  142.8360  157.8743 C.ar    1  UNL1        0.0148
     23 C         142.4476  141.4857  158.0294 C.ar    1  UNL1        0.0028
     24 C         143.4365  141.2438  159.1310 C.ar    1  UNL1        0.0207
     25 C         143.7908  142.3522  160.0775 C.ar    1  UNL1        0.0984
     26 N         143.1563  143.7024  159.9224 N.ar    1  UNL1       -0.2481
@<TRIPOS>BOND
     1    15    16    2
     2    16    19    1
     3    19    20    1
     4    20    21    1
     5    21    22   ar
     6    22    23   ar
     7    23    24   ar
     8    24    25   ar
     9    25    26   ar
    10    16    17   am
    11     1    17    1
    12     1     2    1
    13     2     3    1
    14     3     4    1
    15     4     7    1
    16     7     8   ar
    17     8     9   ar
    18     9    10   ar
    19    10    11    1
    20    10    12   ar
    21    12    13   ar
    22     4     5    1
    23     5     6    1
    24    26    21   ar
    25     6     1    1
    26    13     7   ar
    27    17    18    1
    28    11    14    1
@<TRIPOS>MOLECULE
*****
 26 28 0 0 0
SMALL
GASTEIGER

@<TRIPOS>ATOM
      1 C         139.2359  139.3939  163.7778 C.3     1  UNL1        0.0716
      2 C         138.4491  138.8724  164.9436 C.3     1  UNL1        0.0199
      3 C         138.9373  139.1061  166.3426 C.3     1  UNL1        0.0060
      4 C         140.2122  139.8613  166.5757 C.3     1  UNL1        0.0224
      5 C         140.9989  140.3828  165.4099 C.3     1  UNL1        0.0060
      6 C         140.5108  140.1491  164.0109 C.3     1  UNL1        0.0199
      7 C         140.7003  140.0950  167.9746 C.ar    1  UNL1       -0.0223
      8 C         142.1705  140.0647  168.2709 C.ar    1  UNL1       -0.0012
      9 C         142.6587  140.2984  169.6698 C.ar    1  UNL1        0.0363
     10 C         141.6767  140.5625  170.7725 C.ar    1  UNL1        0.1337
     11 O         142.1649  140.7962  172.1715 O.3     1  UNL1       -0.5055
     12 C         140.2066  140.5928  170.4764 C.ar    1  UNL1        0.0363
     13 C         139.7183  140.3591  169.0774 C.ar    1  UNL1       -0.0012
     14 H         143.0833  140.7773  172.3566 H       1  UNL1        0.2922
     15 O         137.2476  141.2745  162.5491 O.2     1  UNL1       -0.2751
     16 C         137.7536  140.1005  161.7645 C.2     1  UNL1        0.2228
     17 N         138.7477  139.1602  162.3788 N.am    1  UNL1       -0.3060
     18 H         139.0798  138.3896  161.8639 H       1  UNL1        0.1494
     19 C         137.2654  139.8668  160.3655 C.3     1  UNL1        0.0913
     20 C         138.0021  140.4656  159.2042 C.3     1  UNL1        0.0554
     21 C         139.0897  141.4705  159.4437 C.ar    1  UNL1        0.0595
     22 C         140.5230  141.0298  159.4811 C.ar    1  UNL1        0.0148
     23 C         141.6106  142.0347  159.7205 C.ar    1  UNL1        0.0028
     24 C         141.2649  143.4803  159.9224 C.ar    1  UNL1        0.0207
     25 C         139.8316  143.9210  159.8850 C.ar    1  UNL1        0.0984
     26 N         138.7440  142.9161  159.6456 N.ar    1  UNL1       -0.2481
@<TRIPOS>BOND
     1    15    16    2
     2    16    19    1
     3    19    20    1
     4    20    21    1
     5    21    22   ar
     6    22    23   ar
     7    23    24   ar
     8    24    25   ar
     9    25    26   ar
    10    16    17   am
    11     1    17    1
    12     1     2    1
    13     2     3    1
    14     3     4    1
    15     4     7    1
    16     7     8   ar
    17     8     9   ar
    18     9    10   ar
    19    10    11    1
    20    10    12   ar
    21    12    13   ar
    22     4     5    1
    23     5     6    1
    24    26    21   ar
    25     6     1    1
    26    13     7   ar
    27    17    18    1
    28    11    14    1
@<TRIPOS>MOLECULE
*****
 26 28 0 0 0
SMALL
GASTEIGER

@<TRIPOS>ATOM
      1 C         139.3463  140.1160  163.4838 C.3     1  UNL1        0.0716
      2 C         140.3223  141.1920  163.8579 C.3     1  UNL1        0.0199
      3 C         140.5342  141.5438  165.3006 C.3     1  UNL1        0.0060
      4 C         139.7701  140.8197  166.3692 C.3     1  UNL1        0.0224
      5 C         138.7942  139.7438  165.9951 C.3     1  UNL1        0.0060
      6 C         138.5823  139.3919  164.5524 C.3     1  UNL1        0.0199
      7 C         139.9820  141.1715  167.8118 C.ar    1  UNL1       -0.0223
      8 C         139.6376  140.1804  168.8839 C.ar    1  UNL1       -0.0012
      9 C         139.8495  140.5322  170.3266 C.ar    1  UNL1        0.0363
     10 C         140.4057  141.8750  170.6973 C.ar    1  UNL1        0.1337
     11 O         140.6176  142.2268  172.1400 O.3     1  UNL1       -0.5055
     12 C         140.7500  142.8661  169.6253 C.ar    1  UNL1        0.0363
     13 C         140.5382  142.5143  168.1825 C.ar    1  UNL1       -0.0012
     14 H         140.4025  141.6077  172.8096 H       1  UNL1        0.2922
     15 O         137.2683  141.5643  161.8764 O.2     1  UNL1       -0.2751
     16 C         138.0954  140.4884  161.2374 C.2     1  UNL1        0.2228
     17 N         139.1344  139.7642  162.0412 N.am    1  UNL1       -0.3060
     18 H         139.6773  139.0581  161.6218 H       1  UNL1        0.1494
     19 C         137.8835  140.1366  159.7947 C.3     1  UNL1        0.0913
     20 C         138.4847  140.9909  158.7183 C.3     1  UNL1        0.0554
     21 C         139.5217  142.0172  159.0669 C.ar    1  UNL1        0.0595
     22 C         140.9684  141.6275  159.1378 C.ar    1  UNL1        0.0148
     23 C         142.0053  142.6539  159.4864 C.ar    1  UNL1        0.0028
     24 C         141.5955  144.0698  159.7640 C.ar    1  UNL1        0.0207
     25 C         140.1487  144.4595  159.6931 C.ar    1  UNL1        0.0984
     26 N         139.1118  143.4331  159.3445 N.ar    1  UNL1       -0.2481
@<TRIPOS>BOND
     1    15    16    2
     2    16    19    1
     3    19    20    1
     4    20    21    1
     5    21    22   ar
     6    22    23   ar
     7    23    24   ar
     8    24    25   ar
     9    25    26   ar
    10    16    17   am
    11     1    17    1
    12     1     2    1
    13     2     3    1
    14     3     4    1
    15     4     7    1
    16     7     8   ar
    17     8     9   ar
    18     9    10   ar
    19    10    11    1
    20    10    12   ar
    21    12    13   ar
    22     4     5    1
    23     5     6    1
    24    26    21   ar
    25     6     1    1
    26    13     7   ar
    27    17    18    1
    28    11    14    1
@<TRIPOS>MOLECULE
*****
 26 28 0 0 0
SMALL
GASTEIGER

@<TRIPOS>ATOM
      1 C         139.2116  139.7872  163.9673 C.3     1  UNL1        0.0716
      2 C         140.2813  140.8280  164.1177 C.3     1  UNL1        0.0199
      3 C         140.7317  141.2485  165.4853 C.3     1  UNL1        0.0060
      4 C         140.1123  140.6282  166.7025 C.3     1  UNL1        0.0224
      5 C         139.0427  139.5875  166.5522 C.3     1  UNL1        0.0060
      6 C         138.5923  139.1670  165.1846 C.3     1  UNL1        0.0199
      7 C         140.5627  141.0487  168.0701 C.ar    1  UNL1       -0.0223
      8 C         139.9772  140.3948  169.2866 C.ar    1  UNL1       -0.0012
      9 C         140.4275  140.8153  170.6542 C.ar    1  UNL1        0.0363
     10 C         141.4634  141.8896  170.8054 C.ar    1  UNL1        0.1337
     11 O         141.9137  142.3101  172.1731 O.3     1  UNL1       -0.5055
     12 C         142.0488  142.5435  169.5890 C.ar    1  UNL1        0.0363
     13 C         141.5985  142.1230  168.2213 C.ar    1  UNL1       -0.0012
     14 H         141.5479  141.9016  172.9329 H       1  UNL1        0.2922
     15 O         137.2417  141.4690  162.4538 O.2     1  UNL1       -0.2751
     16 C         137.7763  140.2077  161.8430 C.2     1  UNL1        0.2228
     17 N         138.7612  139.3667  162.5997 N.am    1  UNL1       -0.3060
     18 H         139.1121  138.5389  162.1988 H       1  UNL1        0.1494
     19 C         137.3259  139.7872  160.4753 C.3     1  UNL1        0.0913
     20 C         138.0539  140.2821  159.2608 C.3     1  UNL1        0.0554
     21 C         139.1950  139.4894  158.6954 C.ar    1  UNL1        0.0595
     22 C         140.4974  139.4167  159.4360 C.ar    1  UNL1        0.0148
     23 C         141.6384  138.6240  158.8706 C.ar    1  UNL1        0.0028
     24 C         141.4770  137.9040  157.5646 C.ar    1  UNL1        0.0207
     25 C         140.1746  137.9768  156.8240 C.ar    1  UNL1        0.0984
     26 N         139.0336  138.7695  157.3894 N.ar    1  UNL1       -0.2481
@<TRIPOS>BOND
     1    15    16    2
     2    16    19    1
     3    19    20    1
     4    20    21    1
     5    21    22   ar
     6    22    23   ar
     7    23    24   ar
     8    24    25   ar
     9    25    26   ar
    10    16    17   am
    11     1    17    1
    12     1     2    1
    13     2     3    1
    14     3     4    1
    15     4     7    1
    16     7     8   ar
    17     8     9   ar
    18     9    10   ar
    19    10    11    1
    20    10    12   ar
    21    12    13   ar
    22     4     5    1
    23     5     6    1
    24    26    21   ar
    25     6     1    1
    26    13     7   ar
    27    17    18    1
    28    11    14    1
@<TRIPOS>MOLECULE
*****
 26 28 0 0 0
SMALL
GASTEIGER

@<TRIPOS>ATOM
      1 C         141.8664  138.6764  164.3126 C.3     1  UNL1        0.0716
      2 C         142.5927  138.5087  165.6144 C.3     1  UNL1        0.0199
      3 C         142.1386  139.2625  166.8291 C.3     1  UNL1        0.0060
      4 C         140.9582  140.1840  166.7421 C.3     1  UNL1        0.0224
      5 C         140.2319  140.3517  165.4404 C.3     1  UNL1        0.0060
      6 C         140.6861  139.5979  164.2256 C.3     1  UNL1        0.0199
      7 C         140.5040  140.9377  167.9568 C.ar    1  UNL1       -0.0223
      8 C         139.6642  140.2528  168.9940 C.ar    1  UNL1       -0.0012
      9 C         139.2101  141.0066  170.2087 C.ar    1  UNL1        0.0363
     10 C         139.5957  142.4452  170.3863 C.ar    1  UNL1        0.1337
     11 O         139.1415  143.1990  171.6011 O.3     1  UNL1       -0.5055
     12 C         140.4355  143.1301  169.3492 C.ar    1  UNL1        0.0363
     13 C         140.8897  142.3764  168.1344 C.ar    1  UNL1       -0.0012
     14 H         138.6170  142.7711  172.2490 H       1  UNL1        0.2922
     15 O         143.9840  139.8365  162.5323 O.2     1  UNL1       -0.2751
     16 C         143.3794  138.5027  162.2077 C.2     1  UNL1        0.2228
     17 N         142.3206  137.9227  163.0979 N.am    1  UNL1       -0.3060
     18 H         141.9237  137.0472  162.8849 H       1  UNL1        0.1494
     19 C         143.8336  137.7489  160.9930 C.3     1  UNL1        0.0913
     20 C         142.9492  137.6721  159.7839 C.3     1  UNL1        0.0554
     21 C         141.7617  138.5808  159.6642 C.ar    1  UNL1        0.0595
     22 C         141.8050  139.7524  158.7287 C.ar    1  UNL1        0.0148
     23 C         140.6176  140.6609  158.6091 C.ar    1  UNL1        0.0028
     24 C         139.3867  140.3979  159.4251 C.ar    1  UNL1        0.0207
     25 C         139.3434  139.2263  160.3606 C.ar    1  UNL1        0.0984
     26 N         140.5308  138.3177  160.4802 N.ar    1  UNL1       -0.2481
@<TRIPOS>BOND
     1    15    16    2
     2    16    19    1
     3    19    20    1
     4    20    21    1
     5    21    22   ar
     6    22    23   ar
     7    23    24   ar
     8    24    25   ar
     9    25    26   ar
    10    16    17   am
    11     1    17    1
    12     1     2    1
    13     2     3    1
    14     3     4    1
    15     4     7    1
    16     7     8   ar
    17     8     9   ar
    18     9    10   ar
    19    10    11    1
    20    10    12   ar
    21    12    13   ar
    22     4     5    1
    23     5     6    1
    24    26    21   ar
    25     6     1    1
    26    13     7   ar
    27    17    18    1
    28    11    14    1
@<TRIPOS>MOLECULE
*****
 26 28 0 0 0
SMALL
GASTEIGER

@<TRIPOS>ATOM
      1 C         139.5141  140.3034  163.1114 C.3     1  UNL1        0.0716
      2 C         138.4652  139.8474  164.0820 C.3     1  UNL1        0.0199
      3 C         138.6152  140.1471  165.5441 C.3     1  UNL1        0.0060
      4 C         139.8142  140.9027  166.0356 C.3     1  UNL1        0.0224
      5 C         140.8631  141.3586  165.0651 C.3     1  UNL1        0.0060
      6 C         140.7130  141.0590  163.6030 C.3     1  UNL1        0.0199
      7 C         139.9642  141.2024  167.4977 C.ar    1  UNL1       -0.0223
      8 C         139.5167  140.1988  168.5188 C.ar    1  UNL1       -0.0012
      9 C         139.6668  140.4985  169.9808 C.ar    1  UNL1        0.0363
     10 C         140.2643  141.8017  170.4219 C.ar    1  UNL1        0.1337
     11 O         140.4144  142.1013  171.8840 O.3     1  UNL1       -0.5055
     12 C         140.7119  142.8052  169.4008 C.ar    1  UNL1        0.0363
     13 C         140.5618  142.5056  167.9387 C.ar    1  UNL1       -0.0012
     14 H         140.1348  141.4744  172.5218 H       1  UNL1        0.2922
     15 O         140.3889  137.6464  162.0274 O.2     1  UNL1       -0.2751
     16 C         139.8014  138.6752  161.1074 C.2     1  UNL1        0.2228
     17 N         139.3641  140.0037  161.6494 N.am    1  UNL1       -0.3060
     18 H         138.9785  140.6789  161.0455 H       1  UNL1        0.1494
     19 C         139.6514  138.3755  159.6453 C.3     1  UNL1        0.0913
     20 C         140.7437  138.7484  158.6873 C.3     1  UNL1        0.0554
     21 C         141.1985  137.7660  157.6490 C.ar    1  UNL1        0.0595
     22 C         140.2494  137.3110  156.5803 C.ar    1  UNL1        0.0148
     23 C         140.7042  136.3286  155.5420 C.ar    1  UNL1        0.0028
     24 C         142.1081  135.8012  155.5725 C.ar    1  UNL1        0.0207
     25 C         143.0572  136.2562  156.6412 C.ar    1  UNL1        0.0984
     26 N         142.6024  137.2386  157.6794 N.ar    1  UNL1       -0.2481
@<TRIPOS>BOND
     1    15    16    2
     2    16    19    1
     3    19    20    1
     4    20    21    1
     5    21    22   ar
     6    22    23   ar
     7    23    24   ar
     8    24    25   ar
     9    25    26   ar
    10    16    17   am
    11     1    17    1
    12     1     2    1
    13     2     3    1
    14     3     4    1
    15     4     7    1
    16     7     8   ar
    17     8     9   ar
    18     9    10   ar
    19    10    11    1
    20    10    12   ar
    21    12    13   ar
    22     4     5    1
    23     5     6    1
    24    26    21   ar
    25     6     1    1
    26    13     7   ar
    27    17    18    1
    28    11    14    1
