@<TRIPOS>MOLECULE
*****
 37 40 0 0 0
SMALL
GASTEIGER

@<TRIPOS>ATOM
      1 C         138.4769  138.8669  163.2266 C.ar    1  UNL1        0.0859
      2 C         139.0849  137.7593  164.0350 C.ar    1  UNL1        0.1060
      3 N         139.1235  137.8568  165.5313 N.ar    1  UNL1       -0.2288
      4 C         138.5540  139.0619  166.2193 C.ar    1  UNL1        0.1345
      5 C         137.9460  140.1695  165.4109 C.ar    1  UNL1        0.0492
      6 C         137.9074  140.0720  163.9146 C.ar    1  UNL1        0.0571
      7 C         139.6684  138.4549  159.4636 C.3     1  UNL1        0.1109
      8 N         139.7070  138.5524  160.9599 N.am    1  UNL1       -0.2991
      9 C         138.4384  138.7694  161.7303 C.2     1  UNL1        0.2486
     10 O         137.1312  138.8889  161.0044 O.2     1  UNL1       -0.2700
     11 H         140.5649  138.4740  161.4364 H       1  UNL1        0.1498
     12 N         138.5926  139.1594  167.7156 N.pl3   1  UNL1       -0.2833
     13 H         137.8823  138.7419  168.2546 H       1  UNL1        0.1550
     14 C         139.7132  139.8930  168.3908 C.ar    1  UNL1        0.1331
     15 C         140.7367  140.6193  167.5691 C.ar    1  UNL1        0.0324
     16 C         141.8574  141.3529  168.2443 C.ar    1  UNL1        0.0099
     17 C         142.8809  142.0792  167.4226 C.3     1  UNL1        0.0335
     18 C         141.9547  141.3602  169.7411 C.ar    1  UNL1        0.1553
     19 F         143.0754  142.0938  170.4163 F       1  UNL1       -0.2029
     20 C         140.9313  140.6339  170.5628 C.ar    1  UNL1        0.1295
     21 N         139.8105  139.9003  169.8876 N.ar    1  UNL1       -0.2267
     22 N         137.2994  141.1797  163.1063 N.pl3   1  UNL1       -0.3099
     23 H         136.4318  141.0450  162.6609 H       1  UNL1        0.1523
     24 C         138.0132  142.4926  162.9765 C.ar    1  UNL1        0.0829
     25 C         137.8959  143.5206  164.0625 C.ar    1  UNL1        0.0177
     26 C         138.6098  144.8335  163.9328 C.ar    1  UNL1        0.0016
     27 C         139.4409  145.1183  162.7170 C.ar    1  UNL1        0.0062
     28 C         139.5582  144.0903  161.6310 C.ar    1  UNL1        0.0727
     29 C         138.8444  142.7774  161.7608 C.ar    1  UNL1        0.1549
     30 C         140.3894  144.3751  160.4153 C.ar    1  UNL1        0.1862
     31 N         141.7538  143.8208  160.1304 N.ar    1  UNL1       -0.2033
     32 C         142.2097  144.3673  158.8100 C.ar    1  UNL1        0.1972
     33 N         141.1270  145.2594  158.2789 N.ar    1  UNL1       -0.2281
     34 C         141.1630  146.0142  156.9831 C.3     1  UNL1        0.1556
     35 N         140.0020  145.2642  159.2710 N.ar    1  UNL1       -0.1483
     36 O         138.9617  141.7494  160.6748 O.3     1  UNL1       -0.4701
     37 C         138.1401  141.8800  159.4265 C.3     1  UNL1        0.2525
@<TRIPOS>BOND
     1     7     8    1
     2     8     9   am
     3     9    10    2
     4     9     1    1
     5     1     2   ar
     6     2     3   ar
     7     3     4   ar
     8     4    12    1
     9    12    14    1
    10    14    15   ar
    11    15    16   ar
    12    16    17    1
    13    16    18   ar
    14    18    19    1
    15    18    20   ar
    16    20    21   ar
    17     4     5   ar
    18     5     6   ar
    19     6    22    1
    20    22    24    1
    21    24    25   ar
    22    25    26   ar
    23    26    27   ar
    24    27    28   ar
    25    28    30    1
    26    30    31   ar
    27    31    32   ar
    28    32    33   ar
    29    33    34    1
    30    33    35   ar
    31    28    29   ar
    32    29    36    1
    33    36    37    1
    34     6     1   ar
    35    29    24   ar
    36    21    14   ar
    37    35    30   ar
    38     8    11    1
    39    12    13    1
    40    22    23    1
@<TRIPOS>MOLECULE
*****
 37 40 0 0 0
SMALL
GASTEIGER

@<TRIPOS>ATOM
      1 C         143.8157  142.9846  158.5784 C.ar    1  UNL1        0.0859
      2 C         142.9604  143.9840  157.8575 C.ar    1  UNL1        0.1060
      3 N         141.9566  144.7991  158.6177 N.ar    1  UNL1       -0.2288
      4 C         141.8081  144.6149  160.0989 C.ar    1  UNL1        0.1345
      5 C         142.6634  143.6155  160.8199 C.ar    1  UNL1        0.0492
      6 C         143.6672  142.8004  160.0596 C.ar    1  UNL1        0.0571
      7 C         146.9138  142.0367  156.2864 C.3     1  UNL1        0.1109
      8 N         145.9100  142.8518  157.0467 N.am    1  UNL1       -0.2991
      9 C         144.8195  142.1695  157.8181 C.2     1  UNL1        0.2486
     10 O         144.7328  140.6721  157.8294 O.2     1  UNL1       -0.2700
     11 H         145.9669  143.8347  157.0393 H       1  UNL1        0.1498
     12 N         140.8043  145.4300  160.8592 N.pl3   1  UNL1       -0.2833
     13 H         140.7779  146.4077  160.7472 H       1  UNL1        0.1550
     14 C         139.8408  144.7554  161.7900 C.ar    1  UNL1        0.1331
     15 C         139.7617  145.1821  163.2259 C.ar    1  UNL1        0.0324
     16 C         138.7982  144.5075  164.1568 C.ar    1  UNL1        0.0099
     17 C         138.7190  144.9342  165.5927 C.3     1  UNL1        0.0335
     18 C         137.9137  143.4062  163.6518 C.ar    1  UNL1        0.1553
     19 F         136.9502  142.7316  164.5827 F       1  UNL1       -0.2029
     20 C         137.9928  142.9795  162.2160 C.ar    1  UNL1        0.1295
     21 N         138.9564  143.6541  161.2851 N.ar    1  UNL1       -0.2267
     22 N         144.5225  141.8011  160.7806 N.pl3   1  UNL1       -0.3099
     23 H         145.4976  141.9294  160.8259 H       1  UNL1        0.1523
     24 C         143.8922  140.6063  161.4326 C.ar    1  UNL1        0.0829
     25 C         143.6704  139.3506  160.6426 C.ar    1  UNL1        0.0177
     26 C         143.0401  138.1558  161.2947 C.ar    1  UNL1        0.0016
     27 C         142.6316  138.2166  162.7367 C.ar    1  UNL1        0.0062
     28 C         142.8534  139.4723  163.5267 C.ar    1  UNL1        0.0727
     29 C         143.4837  140.6671  162.8747 C.ar    1  UNL1        0.1549
     30 C         142.4449  139.5332  164.9686 C.ar    1  UNL1        0.1862
     31 N         143.3345  139.2761  166.1487 N.ar    1  UNL1       -0.2033
     32 C         142.5144  139.4459  167.3931 C.ar    1  UNL1        0.1972
     33 N         141.1180  139.8080  166.9822 N.ar    1  UNL1       -0.2281
     34 C         139.9666  140.0701  167.9073 C.3     1  UNL1        0.1556
     35 N         141.0750  139.8620  165.4838 N.ar    1  UNL1       -0.1483
     36 O         143.7055  141.9228  163.6646 O.3     1  UNL1       -0.4701
     37 C         145.0507  142.2024  164.2667 C.3     1  UNL1        0.2525
@<TRIPOS>BOND
     1     7     8    1
     2     8     9   am
     3     9    10    2
     4     9     1    1
     5     1     2   ar
     6     2     3   ar
     7     3     4   ar
     8     4    12    1
     9    12    14    1
    10    14    15   ar
    11    15    16   ar
    12    16    17    1
    13    16    18   ar
    14    18    19    1
    15    18    20   ar
    16    20    21   ar
    17     4     5   ar
    18     5     6   ar
    19     6    22    1
    20    22    24    1
    21    24    25   ar
    22    25    26   ar
    23    26    27   ar
    24    27    28   ar
    25    28    30    1
    26    30    31   ar
    27    31    32   ar
    28    32    33   ar
    29    33    34    1
    30    33    35   ar
    31    28    29   ar
    32    29    36    1
    33    36    37    1
    34     6     1   ar
    35    29    24   ar
    36    21    14   ar
    37    35    30   ar
    38     8    11    1
    39    12    13    1
    40    22    23    1
@<TRIPOS>MOLECULE
*****
 37 40 0 0 0
SMALL
GASTEIGER

@<TRIPOS>ATOM
      1 C         139.9891  138.5190  163.9837 C.ar    1  UNL1        0.0859
      2 C         138.7002  138.1322  164.6464 C.ar    1  UNL1        0.1060
      3 N         138.4515  138.5049  166.0779 N.ar    1  UNL1       -0.2288
      4 C         139.4917  139.2643  166.8468 C.ar    1  UNL1        0.1345
      5 C         140.7806  139.6510  166.1841 C.ar    1  UNL1        0.0492
      6 C         141.0293  139.2783  164.7526 C.ar    1  UNL1        0.0571
      7 C         139.5835  138.2949  160.0423 C.3     1  UNL1        0.1109
      8 N         139.3349  138.6676  161.4738 N.am    1  UNL1       -0.2991
      9 C         140.2377  138.1463  162.5522 C.2     1  UNL1        0.2486
     10 O         141.3892  137.2523  162.1991 O.2     1  UNL1       -0.2700
     11 H         138.5791  139.2544  161.7056 H       1  UNL1        0.1498
     12 N         139.2431  139.6370  168.2783 N.pl3   1  UNL1       -0.2833
     13 H         138.4529  139.2851  168.7485 H       1  UNL1        0.1550
     14 C         140.1984  140.5457  168.9936 C.ar    1  UNL1        0.1331
     15 C         139.8638  141.9973  169.1691 C.ar    1  UNL1        0.0324
     16 C         140.8191  142.9060  169.8844 C.ar    1  UNL1        0.0099
     17 C         140.4844  144.3577  170.0599 C.3     1  UNL1        0.0335
     18 C         142.1090  142.3631  170.4241 C.ar    1  UNL1        0.1553
     19 F         143.0643  143.2719  171.1394 F       1  UNL1       -0.2029
     20 C         142.4436  140.9115  170.2486 C.ar    1  UNL1        0.1295
     21 N         141.4883  140.0028  169.5333 N.ar    1  UNL1       -0.2267
     22 N         142.3183  139.6651  164.0900 N.pl3   1  UNL1       -0.3099
     23 H         142.9154  138.9695  163.7312 H       1  UNL1        0.1523
     24 C         142.6973  141.1117  163.9739 C.ar    1  UNL1        0.0829
     25 C         143.8745  141.6422  164.7374 C.ar    1  UNL1        0.0177
     26 C         144.2535  143.0889  164.6213 C.ar    1  UNL1        0.0016
     27 C         143.4554  144.0051  163.7417 C.ar    1  UNL1        0.0062
     28 C         142.2783  143.4746  162.9782 C.ar    1  UNL1        0.0727
     29 C         141.8992  142.0280  163.0943 C.ar    1  UNL1        0.1549
     30 C         141.4802  144.3908  162.0987 C.ar    1  UNL1        0.1862
     31 N         140.5247  145.4492  162.5645 N.ar    1  UNL1       -0.2033
     32 C         139.9514  146.1220  161.3526 C.ar    1  UNL1        0.1972
     33 N         140.5526  145.4793  160.1378 N.ar    1  UNL1       -0.2281
     34 C         140.2602  145.8428  158.7122 C.3     1  UNL1        0.1556
     35 N         141.4974  144.4094  160.5989 N.ar    1  UNL1       -0.1483
     36 O         140.7220  141.4975  162.3308 O.3     1  UNL1       -0.4701
     37 C         139.3317  141.9100  162.7144 C.3     1  UNL1        0.2525
@<TRIPOS>BOND
     1     7     8    1
     2     8     9   am
     3     9    10    2
     4     9     1    1
     5     1     2   ar
     6     2     3   ar
     7     3     4   ar
     8     4    12    1
     9    12    14    1
    10    14    15   ar
    11    15    16   ar
    12    16    17    1
    13    16    18   ar
    14    18    19    1
    15    18    20   ar
    16    20    21   ar
    17     4     5   ar
    18     5     6   ar
    19     6    22    1
    20    22    24    1
    21    24    25   ar
    22    25    26   ar
    23    26    27   ar
    24    27    28   ar
    25    28    30    1
    26    30    31   ar
    27    31    32   ar
    28    32    33   ar
    29    33    34    1
    30    33    35   ar
    31    28    29   ar
    32    29    36    1
    33    36    37    1
    34     6     1   ar
    35    29    24   ar
    36    21    14   ar
    37    35    30   ar
    38     8    11    1
    39    12    13    1
    40    22    23    1
@<TRIPOS>MOLECULE
*****
 37 40 0 0 0
SMALL
GASTEIGER

@<TRIPOS>ATOM
      1 C         143.7413  142.9724  158.4216 C.ar    1  UNL1        0.0859
      2 C         142.7658  143.7789  157.6166 C.ar    1  UNL1        0.1060
      3 N         141.6834  144.5542  158.3074 N.ar    1  UNL1       -0.2288
      4 C         141.5764  144.5230  159.8032 C.ar    1  UNL1        0.1345
      5 C         142.5518  143.7166  160.6082 C.ar    1  UNL1        0.0492
      6 C         143.6343  142.9413  159.9174 C.ar    1  UNL1        0.0571
      7 C         146.9893  142.1455  156.2965 C.3     1  UNL1        0.1109
      8 N         145.9069  142.9208  156.9873 N.am    1  UNL1       -0.2991
      9 C         144.8237  142.1971  157.7308 C.2     1  UNL1        0.2486
     10 O         144.8229  140.6981  157.7835 O.2     1  UNL1       -0.2700
     11 H         145.9074  143.9047  156.9527 H       1  UNL1        0.1498
     12 N         140.4940  145.2984  160.4940 N.pl3   1  UNL1       -0.2833
     13 H         140.3449  146.2447  160.2672 H       1  UNL1        0.1550
     14 C         139.6386  144.6318  161.5304 C.ar    1  UNL1        0.1331
     15 C         139.6643  145.1174  162.9494 C.ar    1  UNL1        0.0324
     16 C         138.8090  144.4508  163.9858 C.ar    1  UNL1        0.0099
     17 C         138.8346  144.9364  165.4049 C.3     1  UNL1        0.0335
     18 C         137.9279  143.2987  163.6032 C.ar    1  UNL1        0.1553
     19 F         137.0725  142.6322  164.6396 F       1  UNL1       -0.2029
     20 C         137.9022  142.8132  162.1842 C.ar    1  UNL1        0.1295
     21 N         138.7576  143.4797  161.1478 N.ar    1  UNL1       -0.2267
     22 N         144.6097  142.1348  160.7225 N.pl3   1  UNL1       -0.3099
     23 H         145.4524  141.8309  160.3142 H       1  UNL1        0.1523
     24 C         144.3012  141.7913  162.1497 C.ar    1  UNL1        0.0829
     25 C         144.9814  142.5313  163.2631 C.ar    1  UNL1        0.0177
     26 C         144.6729  142.1879  164.6903 C.ar    1  UNL1        0.0016
     27 C         143.6842  141.1044  165.0040 C.ar    1  UNL1        0.0062
     28 C         143.0039  140.3644  163.8906 C.ar    1  UNL1        0.0727
     29 C         143.3124  140.7078  162.4635 C.ar    1  UNL1        0.1549
     30 C         142.0152  139.2809  164.2044 C.ar    1  UNL1        0.1862
     31 N         142.2163  137.8116  163.9793 N.ar    1  UNL1       -0.2033
     32 C         140.9771  137.0991  164.4341 C.ar    1  UNL1        0.1972
     33 N         140.0102  138.1282  164.9403 N.ar    1  UNL1       -0.2281
     34 C         138.6419  137.8565  165.4917 C.3     1  UNL1        0.1556
     35 N         140.6518  139.4766  164.7983 N.ar    1  UNL1       -0.1483
     36 O         142.6322  139.9678  161.3501 O.3     1  UNL1       -0.4701
     37 C         143.3483  138.8571  160.6404 C.3     1  UNL1        0.2525
@<TRIPOS>BOND
     1     7     8    1
     2     8     9   am
     3     9    10    2
     4     9     1    1
     5     1     2   ar
     6     2     3   ar
     7     3     4   ar
     8     4    12    1
     9    12    14    1
    10    14    15   ar
    11    15    16   ar
    12    16    17    1
    13    16    18   ar
    14    18    19    1
    15    18    20   ar
    16    20    21   ar
    17     4     5   ar
    18     5     6   ar
    19     6    22    1
    20    22    24    1
    21    24    25   ar
    22    25    26   ar
    23    26    27   ar
    24    27    28   ar
    25    28    30    1
    26    30    31   ar
    27    31    32   ar
    28    32    33   ar
    29    33    34    1
    30    33    35   ar
    31    28    29   ar
    32    29    36    1
    33    36    37    1
    34     6     1   ar
    35    29    24   ar
    36    21    14   ar
    37    35    30   ar
    38     8    11    1
    39    12    13    1
    40    22    23    1
@<TRIPOS>MOLECULE
*****
 37 40 0 0 0
SMALL
GASTEIGER

@<TRIPOS>ATOM
      1 C         140.2264  141.4869  167.8716 C.ar    1  UNL1        0.0859
      2 C         139.6545  140.2013  168.3912 C.ar    1  UNL1        0.1060
      3 N         139.0640  139.2040  167.4389 N.ar    1  UNL1       -0.2288
      4 C         139.0454  139.4925  165.9670 C.ar    1  UNL1        0.1345
      5 C         139.6172  140.7781  165.4474 C.ar    1  UNL1        0.0492
      6 C         140.2078  141.7753  166.3997 C.ar    1  UNL1        0.0571
      7 C         142.6756  143.1585  170.5092 C.3     1  UNL1        0.1109
      8 N         142.0850  142.1613  169.5570 N.am    1  UNL1       -0.2991
      9 C         140.8169  142.4842  168.8238 C.2     1  UNL1        0.2486
     10 O         140.1393  143.8043  169.0430 O.2     1  UNL1       -0.2700
     11 H         142.5298  141.2948  169.4131 H       1  UNL1        0.1498
     12 N         138.4549  138.4952  165.0147 N.pl3   1  UNL1       -0.2833
     13 H         137.7761  137.8556  165.3301 H       1  UNL1        0.1550
     14 C         138.8984  138.4725  163.5821 C.ar    1  UNL1        0.1331
     15 C         140.3079  138.0903  163.2393 C.ar    1  UNL1        0.0324
     16 C         140.7515  138.0676  161.8066 C.ar    1  UNL1        0.0099
     17 C         142.1610  137.6855  161.4638 C.3     1  UNL1        0.0335
     18 C         139.7857  138.4271  160.7166 C.ar    1  UNL1        0.1553
     19 F         140.2294  138.4044  159.2838 F       1  UNL1       -0.2029
     20 C         138.3763  138.8093  161.0593 C.ar    1  UNL1        0.1295
     21 N         137.9327  138.8320  162.4921 N.ar    1  UNL1       -0.2267
     22 N         140.7796  143.0610  165.8800 N.pl3   1  UNL1       -0.3099
     23 H         140.3488  143.9175  166.1039 H       1  UNL1        0.1523
     24 C         142.0079  143.0418  165.0193 C.ar    1  UNL1        0.0829
     25 C         143.3615  142.8885  165.6473 C.ar    1  UNL1        0.0177
     26 C         144.5898  142.8693  164.7865 C.ar    1  UNL1        0.0016
     27 C         144.4646  143.0034  163.2978 C.ar    1  UNL1        0.0062
     28 C         143.1110  143.1567  162.6698 C.ar    1  UNL1        0.0727
     29 C         141.8827  143.1759  163.5305 C.ar    1  UNL1        0.1549
     30 C         142.9858  143.2908  161.1811 C.ar    1  UNL1        0.1862
     31 N         143.4849  142.3095  160.1624 N.ar    1  UNL1       -0.2033
     32 C         143.1470  142.8420  158.8014 C.ar    1  UNL1        0.1972
     33 N         142.4390  144.1524  158.9790 N.ar    1  UNL1       -0.2281
     34 C         141.9215  145.0312  157.8790 C.3     1  UNL1        0.1556
     35 N         142.3394  144.4298  160.4498 N.ar    1  UNL1       -0.1483
     36 O         140.5292  143.3293  162.9025 O.3     1  UNL1       -0.4701
     37 C         139.8640  142.1499  162.2569 C.3     1  UNL1        0.2525
@<TRIPOS>BOND
     1     7     8    1
     2     8     9   am
     3     9    10    2
     4     9     1    1
     5     1     2   ar
     6     2     3   ar
     7     3     4   ar
     8     4    12    1
     9    12    14    1
    10    14    15   ar
    11    15    16   ar
    12    16    17    1
    13    16    18   ar
    14    18    19    1
    15    18    20   ar
    16    20    21   ar
    17     4     5   ar
    18     5     6   ar
    19     6    22    1
    20    22    24    1
    21    24    25   ar
    22    25    26   ar
    23    26    27   ar
    24    27    28   ar
    25    28    30    1
    26    30    31   ar
    27    31    32   ar
    28    32    33   ar
    29    33    34    1
    30    33    35   ar
    31    28    29   ar
    32    29    36    1
    33    36    37    1
    34     6     1   ar
    35    29    24   ar
    36    21    14   ar
    37    35    30   ar
    38     8    11    1
    39    12    13    1
    40    22    23    1
@<TRIPOS>MOLECULE
*****
 37 40 0 0 0
SMALL
GASTEIGER

@<TRIPOS>ATOM
      1 C         141.1637  140.2449  168.6278 C.ar    1  UNL1        0.0859
      2 C         142.3761  139.4338  168.9773 C.ar    1  UNL1        0.1060
      3 N         143.2197  138.8388  167.8891 N.ar    1  UNL1       -0.2288
      4 C         142.8511  139.0550  166.4513 C.ar    1  UNL1        0.1345
      5 C         141.6387  139.8662  166.1018 C.ar    1  UNL1        0.0492
      6 C         140.7951  140.4611  167.1900 C.ar    1  UNL1        0.0571
      7 C         139.4961  142.9154  171.0438 C.3     1  UNL1        0.1109
      8 N         140.3398  142.3205  169.9556 N.am    1  UNL1       -0.2991
      9 C         140.3201  140.8399  169.7160 C.2     1  UNL1        0.2486
     10 O         139.4567  139.9543  170.5647 O.2     1  UNL1       -0.2700
     11 H         140.9064  142.9018  169.3986 H       1  UNL1        0.1498
     12 N         143.6947  138.4601  165.3631 N.pl3   1  UNL1       -0.2833
     13 H         144.1007  137.5715  165.4851 H       1  UNL1        0.1550
     14 C         143.9199  139.2189  164.0890 C.ar    1  UNL1        0.1331
     15 C         143.4826  138.6325  162.7794 C.ar    1  UNL1        0.0324
     16 C         143.7078  139.3913  161.5053 C.ar    1  UNL1        0.0099
     17 C         143.2706  138.8049  160.1957 C.3     1  UNL1        0.0335
     18 C         144.3702  140.7367  161.5407 C.ar    1  UNL1        0.1553
     19 F         144.5954  141.4956  160.2665 F       1  UNL1       -0.2029
     20 C         144.8075  141.3232  162.8502 C.ar    1  UNL1        0.1295
     21 N         144.5823  140.5643  164.1244 N.ar    1  UNL1       -0.2267
     22 N         139.5827  141.2723  166.8404 N.pl3   1  UNL1       -0.3099
     23 H         139.0902  141.7506  167.5460 H       1  UNL1        0.1523
     24 C         139.1207  141.3547  165.4157 C.ar    1  UNL1        0.0829
     25 C         138.2151  140.2966  164.8585 C.ar    1  UNL1        0.0177
     26 C         137.7531  140.3791  163.4338 C.ar    1  UNL1        0.0016
     27 C         138.1967  141.5195  162.5663 C.ar    1  UNL1        0.0062
     28 C         139.1023  142.5775  163.1234 C.ar    1  UNL1        0.0727
     29 C         139.5643  142.4952  164.5481 C.ar    1  UNL1        0.1549
     30 C         139.5459  143.7179  162.2559 C.ar    1  UNL1        0.1862
     31 N         139.2983  145.1739  162.5188 N.ar    1  UNL1       -0.2033
     32 C         139.9144  145.9584  161.3986 C.ar    1  UNL1        0.1972
     33 N         140.5427  144.9874  160.4434 N.ar    1  UNL1       -0.2281
     34 C         141.2709  145.3392  159.1800 C.3     1  UNL1        0.1556
     35 N         140.3149  143.6027  160.9733 N.ar    1  UNL1       -0.1483
     36 O         140.4699  143.5532  165.1053 O.3     1  UNL1       -0.4701
     37 C         141.9566  143.4240  164.9532 C.3     1  UNL1        0.2525
@<TRIPOS>BOND
     1     7     8    1
     2     8     9   am
     3     9    10    2
     4     9     1    1
     5     1     2   ar
     6     2     3   ar
     7     3     4   ar
     8     4    12    1
     9    12    14    1
    10    14    15   ar
    11    15    16   ar
    12    16    17    1
    13    16    18   ar
    14    18    19    1
    15    18    20   ar
    16    20    21   ar
    17     4     5   ar
    18     5     6   ar
    19     6    22    1
    20    22    24    1
    21    24    25   ar
    22    25    26   ar
    23    26    27   ar
    24    27    28   ar
    25    28    30    1
    26    30    31   ar
    27    31    32   ar
    28    32    33   ar
    29    33    34    1
    30    33    35   ar
    31    28    29   ar
    32    29    36    1
    33    36    37    1
    34     6     1   ar
    35    29    24   ar
    36    21    14   ar
    37    35    30   ar
    38     8    11    1
    39    12    13    1
    40    22    23    1
@<TRIPOS>MOLECULE
*****
 37 40 0 0 0
SMALL
GASTEIGER

@<TRIPOS>ATOM
      1 C         142.5872  140.8141  167.0430 C.ar    1  UNL1        0.0859
      2 C         142.7789  139.3426  167.2623 C.ar    1  UNL1        0.1060
      3 N         142.8089  138.4073  166.0900 N.ar    1  UNL1       -0.2288
      4 C         142.6474  138.9434  164.6984 C.ar    1  UNL1        0.1345
      5 C         142.4558  140.4149  164.4792 C.ar    1  UNL1        0.0492
      6 C         142.4257  141.3502  165.6515 C.ar    1  UNL1        0.0571
      7 C         141.3684  142.6570  170.3396 C.3     1  UNL1        0.1109
      8 N         141.3984  141.7217  169.1674 N.am    1  UNL1       -0.2991
      9 C         142.5572  141.7494  168.2153 C.2     1  UNL1        0.2486
     10 O         143.6859  142.7124  168.4355 O.2     1  UNL1       -0.2700
     11 H         140.6576  141.0896  169.0228 H       1  UNL1        0.1498
     12 N         142.6774  138.0081  163.5261 N.pl3   1  UNL1       -0.2833
     13 H         143.3186  137.2612  163.5086 H       1  UNL1        0.1550
     14 C         141.7306  138.2107  162.3805 C.ar    1  UNL1        0.1331
     15 C         140.2513  138.0942  162.6005 C.ar    1  UNL1        0.0324
     16 C         139.3045  138.2968  161.4549 C.ar    1  UNL1        0.0099
     17 C         137.8252  138.1803  161.6749 C.3     1  UNL1        0.0335
     18 C         139.8368  138.6159  160.0893 C.ar    1  UNL1        0.1553
     19 F         138.8899  138.8185  158.9437 F       1  UNL1       -0.2029
     20 C         141.3160  138.7324  159.8694 C.ar    1  UNL1        0.1295
     21 N         142.2629  138.5298  161.0150 N.ar    1  UNL1       -0.2267
     22 N         142.2341  142.8217  165.4322 N.pl3   1  UNL1       -0.3099
     23 H         142.9106  143.4598  165.7554 H       1  UNL1        0.1523
     24 C         141.0118  143.3210  164.7204 C.ar    1  UNL1        0.0829
     25 C         139.7760  143.6601  165.5000 C.ar    1  UNL1        0.0177
     26 C         138.5536  144.1594  164.7882 C.ar    1  UNL1        0.0016
     27 C         138.5671  144.3196  163.2969 C.ar    1  UNL1        0.0062
     28 C         139.8029  143.9806  162.5173 C.ar    1  UNL1        0.0727
     29 C         141.0252  143.4813  163.2290 C.ar    1  UNL1        0.1549
     30 C         139.8165  144.1408  161.0260 C.ar    1  UNL1        0.1862
     31 N         139.5057  143.0710  160.0214 N.ar    1  UNL1       -0.2033
     32 C         139.6403  143.6680  158.6519 C.ar    1  UNL1        0.1972
     33 N         140.0342  145.1067  158.8101 N.ar    1  UNL1       -0.2281
     34 C         140.2767  146.0820  157.6965 C.3     1  UNL1        0.1556
     35 N         140.1431  145.3989  160.2773 N.ar    1  UNL1       -0.1483
     36 O         142.2611  143.1422  162.4494 O.3     1  UNL1       -0.4701
     37 C         143.3995  144.1170  162.3869 C.3     1  UNL1        0.2525
@<TRIPOS>BOND
     1     7     8    1
     2     8     9   am
     3     9    10    2
     4     9     1    1
     5     1     2   ar
     6     2     3   ar
     7     3     4   ar
     8     4    12    1
     9    12    14    1
    10    14    15   ar
    11    15    16   ar
    12    16    17    1
    13    16    18   ar
    14    18    19    1
    15    18    20   ar
    16    20    21   ar
    17     4     5   ar
    18     5     6   ar
    19     6    22    1
    20    22    24    1
    21    24    25   ar
    22    25    26   ar
    23    26    27   ar
    24    27    28   ar
    25    28    30    1
    26    30    31   ar
    27    31    32   ar
    28    32    33   ar
    29    33    34    1
    30    33    35   ar
    31    28    29   ar
    32    29    36    1
    33    36    37    1
    34     6     1   ar
    35    29    24   ar
    36    21    14   ar
    37    35    30   ar
    38     8    11    1
    39    12    13    1
    40    22    23    1
@<TRIPOS>MOLECULE
*****
 37 40 0 0 0
SMALL
GASTEIGER

@<TRIPOS>ATOM
      1 C         138.5860  141.5510  158.1328 C.ar    1  UNL1        0.0859
      2 C         138.8488  140.2306  157.4715 C.ar    1  UNL1        0.1060
      3 N         139.0142  138.9943  158.3047 N.ar    1  UNL1       -0.2288
      4 C         138.9168  139.0784  159.7992 C.ar    1  UNL1        0.1345
      5 C         138.6540  140.3989  160.4604 C.ar    1  UNL1        0.0492
      6 C         138.4886  141.6352  159.6272 C.ar    1  UNL1        0.0571
      7 C         137.1867  144.0823  155.4153 C.3     1  UNL1        0.1109
      8 N         137.3521  142.8460  156.2485 N.am    1  UNL1       -0.2991
      9 C         138.4206  142.7874  157.2996 C.2     1  UNL1        0.2486
     10 O         139.3237  143.9650  157.5175 O.2     1  UNL1       -0.2700
     11 H         136.7593  142.0731  156.1055 H       1  UNL1        0.1498
     12 N         139.0822  137.8421  160.6323 N.pl3   1  UNL1       -0.2833
     13 H         138.7357  136.9797  160.3076 H       1  UNL1        0.1550
     14 C         139.7753  137.9198  161.9603 C.ar    1  UNL1        0.1331
     15 C         138.9701  138.0136  163.2223 C.ar    1  UNL1        0.0324
     16 C         139.6633  138.0913  164.5503 C.ar    1  UNL1        0.0099
     17 C         138.8580  138.1850  165.8124 C.3     1  UNL1        0.0335
     18 C         141.1617  138.0752  164.6162 C.ar    1  UNL1        0.1553
     19 F         141.8549  138.1529  165.9442 F       1  UNL1       -0.2029
     20 C         141.9670  137.9814  163.3542 C.ar    1  UNL1        0.1295
     21 N         141.2738  137.9038  162.0262 N.ar    1  UNL1       -0.2267
     22 N         138.2258  142.9557  160.2885 N.pl3   1  UNL1       -0.3099
     23 H         137.7517  143.6659  159.7986 H       1  UNL1        0.1523
     24 C         138.6854  143.1941  161.6963 C.ar    1  UNL1        0.0829
     25 C         137.6799  143.4365  162.7827 C.ar    1  UNL1        0.0177
     26 C         138.1396  143.6750  164.1905 C.ar    1  UNL1        0.0016
     27 C         139.6047  143.6709  164.5119 C.ar    1  UNL1        0.0062
     28 C         140.6102  143.4285  163.4256 C.ar    1  UNL1        0.0727
     29 C         140.1506  143.1901  162.0178 C.ar    1  UNL1        0.1549
     30 C         142.0754  143.4244  163.7470 C.ar    1  UNL1        0.1862
     31 N         142.8749  144.5973  164.2319 N.ar    1  UNL1       -0.2033
     32 C         144.2919  144.1446  164.4246 C.ar    1  UNL1        0.1972
     33 N         144.3681  142.6918  164.0586 N.ar    1  UNL1       -0.2281
     34 C         145.5983  141.8347  164.1036 C.3     1  UNL1        0.1556
     35 N         142.9982  142.2468  163.6399 N.ar    1  UNL1       -0.1483
     36 O         141.1561  142.9476  160.9314 O.3     1  UNL1       -0.4701
     37 C         141.7652  144.1075  160.2008 C.3     1  UNL1        0.2525
@<TRIPOS>BOND
     1     7     8    1
     2     8     9   am
     3     9    10    2
     4     9     1    1
     5     1     2   ar
     6     2     3   ar
     7     3     4   ar
     8     4    12    1
     9    12    14    1
    10    14    15   ar
    11    15    16   ar
    12    16    17    1
    13    16    18   ar
    14    18    19    1
    15    18    20   ar
    16    20    21   ar
    17     4     5   ar
    18     5     6   ar
    19     6    22    1
    20    22    24    1
    21    24    25   ar
    22    25    26   ar
    23    26    27   ar
    24    27    28   ar
    25    28    30    1
    26    30    31   ar
    27    31    32   ar
    28    32    33   ar
    29    33    34    1
    30    33    35   ar
    31    28    29   ar
    32    29    36    1
    33    36    37    1
    34     6     1   ar
    35    29    24   ar
    36    21    14   ar
    37    35    30   ar
    38     8    11    1
    39    12    13    1
    40    22    23    1
@<TRIPOS>MOLECULE
*****
 37 40 0 0 0
SMALL
GASTEIGER

@<TRIPOS>ATOM
      1 C         138.8612  142.1949  158.4597 C.ar    1  UNL1        0.0859
      2 C         139.7941  143.0664  157.6723 C.ar    1  UNL1        0.1060
      3 N         140.7443  143.9832  158.3842 N.ar    1  UNL1       -0.2288
      4 C         140.7615  144.0284  159.8833 C.ar    1  UNL1        0.1345
      5 C         139.8286  143.1569  160.6707 C.ar    1  UNL1        0.0492
      6 C         138.8784  142.2401  159.9588 C.ar    1  UNL1        0.0571
      7 C         135.7714  140.9253  156.3169 C.3     1  UNL1        0.1109
      8 N         136.7216  141.8420  157.0288 N.am    1  UNL1       -0.2991
      9 C         137.9111  141.2781  157.7478 C.2     1  UNL1        0.2486
     10 O         138.1504  139.7973  157.7550 O.2     1  UNL1       -0.2700
     11 H         136.5645  142.8139  157.0240 H       1  UNL1        0.1498
     12 N         141.7117  144.9452  160.5952 N.pl3   1  UNL1       -0.2833
     13 H         141.8505  145.8625  160.2658 H       1  UNL1        0.1550
     14 C         142.4503  144.4644  161.8089 C.ar    1  UNL1        0.1331
     15 C         143.5072  143.4084  161.6743 C.ar    1  UNL1        0.0324
     16 C         144.2458  142.9276  162.8880 C.ar    1  UNL1        0.0099
     17 C         145.3026  141.8716  162.7534 C.3     1  UNL1        0.0335
     18 C         143.9277  143.5027  164.2364 C.ar    1  UNL1        0.1553
     19 F         144.6664  143.0218  165.4501 F       1  UNL1       -0.2029
     20 C         142.8709  144.5586  164.3710 C.ar    1  UNL1        0.1295
     21 N         142.1322  145.0395  163.1572 N.ar    1  UNL1       -0.2267
     22 N         137.9454  141.3685  160.7463 N.pl3   1  UNL1       -0.3099
     23 H         136.9744  141.5260  160.7078 H       1  UNL1        0.1523
     24 C         138.4920  140.2569  161.5922 C.ar    1  UNL1        0.0829
     25 C         139.1905  139.0970  160.9467 C.ar    1  UNL1        0.0177
     26 C         139.7370  137.9854  161.7927 C.ar    1  UNL1        0.0016
     27 C         139.5851  138.0338  163.2842 C.ar    1  UNL1        0.0062
     28 C         138.8866  139.1937  163.9297 C.ar    1  UNL1        0.0727
     29 C         138.3401  140.3052  163.0838 C.ar    1  UNL1        0.1549
     30 C         138.7347  139.2420  165.4212 C.ar    1  UNL1        0.1862
     31 N         137.6678  138.5557  166.2215 N.ar    1  UNL1       -0.2033
     32 C         137.8967  138.8747  167.6692 C.ar    1  UNL1        0.1972
     33 N         139.1052  139.7583  167.7636 N.ar    1  UNL1       -0.2281
     34 C         139.6926  140.3168  169.0257 C.3     1  UNL1        0.1556
     35 N         139.6231  139.9853  166.3742 N.ar    1  UNL1       -0.1483
     36 O         137.6416  141.4652  163.7293 O.3     1  UNL1       -0.4701
     37 C         138.4254  142.6732  164.1495 C.3     1  UNL1        0.2525
@<TRIPOS>BOND
     1     7     8    1
     2     8     9   am
     3     9    10    2
     4     9     1    1
     5     1     2   ar
     6     2     3   ar
     7     3     4   ar
     8     4    12    1
     9    12    14    1
    10    14    15   ar
    11    15    16   ar
    12    16    17    1
    13    16    18   ar
    14    18    19    1
    15    18    20   ar
    16    20    21   ar
    17     4     5   ar
    18     5     6   ar
    19     6    22    1
    20    22    24    1
    21    24    25   ar
    22    25    26   ar
    23    26    27   ar
    24    27    28   ar
    25    28    30    1
    26    30    31   ar
    27    31    32   ar
    28    32    33   ar
    29    33    34    1
    30    33    35   ar
    31    28    29   ar
    32    29    36    1
    33    36    37    1
    34     6     1   ar
    35    29    24   ar
    36    21    14   ar
    37    35    30   ar
    38     8    11    1
    39    12    13    1
    40    22    23    1
