@<TRIPOS>MOLECULE
*****
 27 29 0 0 0
SMALL
GASTEIGER

@<TRIPOS>ATOM
      1 C         139.8526  140.9001  165.9386 C.ar    1  UNL1        0.0829
      2 C         140.8347  141.9182  166.4374 C.ar    1  UNL1        0.1029
      3 N         140.8592  141.8437  167.9353 N.ar    1  UNL1       -0.1822
      4 C         139.8921  140.7794  168.3624 C.ar    1  UNL1        0.3370
      5 N         139.2700  140.1963  167.1283 N.ar    1  UNL1       -0.2690
      6 C         138.2453  139.1016  167.0905 C.3     1  UNL1        0.1363
      7 C         141.6494  142.8477  165.5875 C.ar    1  UNL1        0.0194
      8 C         140.9686  143.8900  164.7509 C.ar    1  UNL1        0.0039
      9 C         141.7833  144.8195  163.9011 C.ar    1  UNL1        0.0297
     10 C         143.2790  144.7066  163.8877 C.ar    1  UNL1        0.1401
     11 F         144.0937  145.6361  163.0378 F       1  UNL1       -0.2042
     12 C         143.9599  143.6642  164.7243 C.ar    1  UNL1        0.0297
     13 C         143.1452  142.7347  165.5742 C.ar    1  UNL1        0.0039
     14 C         140.2386  139.9047  162.1163 C.ar    1  UNL1        0.1342
     15 C         140.5785  140.1721  163.5525 C.ar    1  UNL1        0.0360
     16 C         139.5127  140.6326  164.5023 C.ar    1  UNL1        0.0218
     17 C         138.1070  140.8257  164.0157 C.ar    1  UNL1        0.0223
     18 C         137.7672  140.5582  162.5794 C.ar    1  UNL1        0.1004
     19 N         138.8330  140.0977  161.6297 N.ar    1  UNL1       -0.2290
     20 C         142.8887  137.5783  160.2955 C.3     1  UNL1        0.0950
     21 C         141.8229  138.0388  161.2452 C.2     1  UNL1        0.2277
     22 O         141.2756  137.0939  162.2737 O.2     1  UNL1       -0.2747
     23 N         141.3045  139.4442  161.1665 N.am    1  UNL1       -0.2693
     24 H         141.6637  140.0643  160.4915 H       1  UNL1        0.1563
     25 S         139.5986  140.3703  169.7753 S.O     1  UNL1        0.0959
     26 C         140.6952  139.8245  170.6412 C.3     1  UNL1        0.3285
     27 O         138.2086  140.5069  170.3224 O.co2   1  UNL1       -0.6753
@<TRIPOS>UNITY_ATOM_ATTR
25 1
charge 1
27 1
charge -1
@<TRIPOS>BOND
     1    20    21    1
     2    21    22    2
     3    21    23   am
     4    23    14    1
     5    14    15   ar
     6    15    16   ar
     7    16     1    1
     8     1     2   ar
     9     2     7    1
    10     7     8   ar
    11     8     9   ar
    12     9    10   ar
    13    10    11    1
    14    10    12   ar
    15    12    13   ar
    16     2     3   ar
    17     3     4   ar
    18     4    25    1
    19    25    26    1
    20    25    27    2
    21     4     5   ar
    22     5     6    1
    23    16    17   ar
    24    17    18   ar
    25    18    19   ar
    26    19    14   ar
    27     5     1   ar
    28    13     7   ar
    29    23    24    1
@<TRIPOS>MOLECULE
*****
 27 29 0 0 0
SMALL
GASTEIGER

@<TRIPOS>ATOM
      1 C         140.0505  141.6223  166.7673 C.ar    1  UNL1        0.0829
      2 C         139.5824  140.2172  166.5293 C.ar    1  UNL1        0.1029
      3 N         139.4612  139.5372  167.8608 N.ar    1  UNL1       -0.1822
      4 C         139.8544  140.5221  168.9218 C.ar    1  UNL1        0.3370
      5 N         140.2186  141.8107  168.2459 N.ar    1  UNL1       -0.2690
      6 C         140.6714  143.0671  168.9288 C.3     1  UNL1        0.1363
      7 C         139.2873  139.6004  165.1942 C.ar    1  UNL1        0.0194
      8 C         138.2803  140.2345  164.2811 C.ar    1  UNL1        0.0039
      9 C         137.9852  139.6177  162.9461 C.ar    1  UNL1        0.0297
     10 C         138.6972  138.3667  162.5240 C.ar    1  UNL1        0.1401
     11 F         138.4021  137.7499  161.1890 F       1  UNL1       -0.2042
     12 C         139.7043  137.7326  163.4372 C.ar    1  UNL1        0.0297
     13 C         139.9994  138.3494  164.7722 C.ar    1  UNL1        0.0039
     14 C         141.8588  143.6922  163.9045 C.ar    1  UNL1        0.1342
     15 C         141.6036  142.6573  164.9598 C.ar    1  UNL1        0.0360
     16 C         140.3058  142.6573  165.7120 C.ar    1  UNL1        0.0218
     17 C         139.2633  143.6923  165.4089 C.ar    1  UNL1        0.0223
     18 C         139.5186  144.7273  164.3536 C.ar    1  UNL1        0.1004
     19 N         140.8163  144.7272  163.6014 N.ar    1  UNL1       -0.2290
     20 C         144.6319  142.7955  161.2108 C.3     1  UNL1        0.0950
     21 C         143.3341  142.7955  161.9630 C.2     1  UNL1        0.2277
     22 O         142.2138  141.8990  161.5258 O.2     1  UNL1       -0.2747
     23 N         143.1566  143.6921  163.1523 N.am    1  UNL1       -0.2693
     24 H         143.8919  144.2806  163.4393 H       1  UNL1        0.1563
     25 S         139.8790  140.2636  170.3991 S.O     1  UNL1        0.0959
     26 C         141.0179  140.7744  171.2310 C.3     1  UNL1        0.3285
     27 O         138.7647  139.4944  171.0446 O.co2   1  UNL1       -0.6753
@<TRIPOS>UNITY_ATOM_ATTR
25 1
charge 1
27 1
charge -1
@<TRIPOS>BOND
     1    20    21    1
     2    21    22    2
     3    21    23   am
     4    23    14    1
     5    14    15   ar
     6    15    16   ar
     7    16     1    1
     8     1     2   ar
     9     2     7    1
    10     7     8   ar
    11     8     9   ar
    12     9    10   ar
    13    10    11    1
    14    10    12   ar
    15    12    13   ar
    16     2     3   ar
    17     3     4   ar
    18     4    25    1
    19    25    26    1
    20    25    27    2
    21     4     5   ar
    22     5     6    1
    23    16    17   ar
    24    17    18   ar
    25    18    19   ar
    26    19    14   ar
    27     5     1   ar
    28    13     7   ar
    29    23    24    1
@<TRIPOS>MOLECULE
*****
 27 29 0 0 0
SMALL
GASTEIGER

@<TRIPOS>ATOM
      1 C         140.5886  141.1871  166.6416 C.ar    1  UNL1        0.0829
      2 C         139.7429  139.9896  166.3241 C.ar    1  UNL1        0.1029
      3 N         139.1610  139.4792  167.6090 N.ar    1  UNL1       -0.1822
      4 C         139.6469  140.3614  168.7206 C.ar    1  UNL1        0.3370
      5 N         140.5292  141.4169  168.1228 N.ar    1  UNL1       -0.2690
      6 C         141.2293  142.5102  168.8741 C.3     1  UNL1        0.1363
      7 C         139.5186  139.4050  164.9611 C.ar    1  UNL1        0.0194
      8 C         138.4651  139.9809  164.0620 C.ar    1  UNL1        0.0039
      9 C         138.2408  139.3963  162.6989 C.ar    1  UNL1        0.0297
     10 C         139.0701  138.2356  162.2349 C.ar    1  UNL1        0.1401
     11 F         138.8457  137.6510  160.8719 F       1  UNL1       -0.2042
     12 C         140.1236  137.6597  163.1341 C.ar    1  UNL1        0.0297
     13 C         140.3479  138.2443  164.4971 C.ar    1  UNL1        0.0039
     14 C         141.5203  144.0793  164.0888 C.ar    1  UNL1        0.1342
     15 C         140.7505  143.2561  165.0785 C.ar    1  UNL1        0.0360
     16 C         141.3584  142.0103  165.6518 C.ar    1  UNL1        0.0218
     17 C         142.7361  141.5878  165.2353 C.ar    1  UNL1        0.0223
     18 C         143.5058  142.4110  164.2455 C.ar    1  UNL1        0.1004
     19 N         142.8980  143.6568  163.6723 N.ar    1  UNL1       -0.2290
     20 C         139.5650  146.5130  161.6386 C.3     1  UNL1        0.0950
     21 C         140.1729  145.2673  162.2118 C.2     1  UNL1        0.2277
     22 O         140.0411  143.9638  161.4813 O.2     1  UNL1       -0.2747
     23 N         140.9124  145.3250  163.5155 N.am    1  UNL1       -0.2693
     24 H         140.9989  146.1806  163.9950 H       1  UNL1        0.1563
     25 S         139.3098  140.2139  170.1748 S.O     1  UNL1        0.0959
     26 C         140.3854  140.3493  171.2115 C.3     1  UNL1        0.3285
     27 O         137.8970  139.9311  170.5922 O.co2   1  UNL1       -0.6753
@<TRIPOS>UNITY_ATOM_ATTR
25 1
charge 1
27 1
charge -1
@<TRIPOS>BOND
     1    20    21    1
     2    21    22    2
     3    21    23   am
     4    23    14    1
     5    14    15   ar
     6    15    16   ar
     7    16     1    1
     8     1     2   ar
     9     2     7    1
    10     7     8   ar
    11     8     9   ar
    12     9    10   ar
    13    10    11    1
    14    10    12   ar
    15    12    13   ar
    16     2     3   ar
    17     3     4   ar
    18     4    25    1
    19    25    26    1
    20    25    27    2
    21     4     5   ar
    22     5     6    1
    23    16    17   ar
    24    17    18   ar
    25    18    19   ar
    26    19    14   ar
    27     5     1   ar
    28    13     7   ar
    29    23    24    1
@<TRIPOS>MOLECULE
*****
 27 29 0 0 0
SMALL
GASTEIGER

@<TRIPOS>ATOM
      1 C         140.5676  140.0048  166.2270 C.ar    1  UNL1        0.0829
      2 C         141.8167  140.7266  166.6377 C.ar    1  UNL1        0.1029
      3 N         141.6702  141.1248  168.0764 N.ar    1  UNL1       -0.1822
      4 C         140.3305  140.6490  168.5550 C.ar    1  UNL1        0.3370
      5 N         139.6491  139.9568  167.4119 N.ar    1  UNL1       -0.2690
      6 C         138.2881  139.3273  167.4476 C.3     1  UNL1        0.1363
      7 C         143.0040  141.0019  165.7632 C.ar    1  UNL1        0.0194
      8 C         143.7479  139.8646  165.1285 C.ar    1  UNL1        0.0039
      9 C         144.9351  140.1399  164.2541 C.ar    1  UNL1        0.0297
     10 C         145.3784  141.5527  164.0142 C.ar    1  UNL1        0.1401
     11 F         146.5656  141.8280  163.1398 F       1  UNL1       -0.2042
     12 C         144.6344  142.6901  164.6490 C.ar    1  UNL1        0.0297
     13 C         143.4472  142.4148  165.5234 C.ar    1  UNL1        0.0039
     14 C         139.8921  139.7660  162.3236 C.ar    1  UNL1        0.1342
     15 C         140.1734  140.3392  163.6809 C.ar    1  UNL1        0.0360
     16 C         140.2864  139.4315  164.8696 C.ar    1  UNL1        0.0218
     17 C         140.1181  137.9505  164.7011 C.ar    1  UNL1        0.0223
     18 C         139.8369  137.3773  163.3439 C.ar    1  UNL1        0.1004
     19 N         139.7239  138.2851  162.1551 N.ar    1  UNL1       -0.2290
     20 C         138.4136  142.3772  159.7262 C.3     1  UNL1        0.0950
     21 C         138.5267  141.4694  160.9150 C.2     1  UNL1        0.2277
     22 O         137.3872  141.3573  161.8841 O.2     1  UNL1       -0.2747
     23 N         139.7791  140.6738  161.1348 N.am    1  UNL1       -0.2693
     24 H         140.5270  140.7473  160.4987 H       1  UNL1        0.1563
     25 S         139.7706  140.8332  169.9343 S.O     1  UNL1        0.0959
     26 C         139.6353  142.2113  170.5109 C.3     1  UNL1        0.3285
     27 O         139.3460  139.6392  170.7370 O.co2   1  UNL1       -0.6753
@<TRIPOS>UNITY_ATOM_ATTR
25 1
charge 1
27 1
charge -1
@<TRIPOS>BOND
     1    20    21    1
     2    21    22    2
     3    21    23   am
     4    23    14    1
     5    14    15   ar
     6    15    16   ar
     7    16     1    1
     8     1     2   ar
     9     2     7    1
    10     7     8   ar
    11     8     9   ar
    12     9    10   ar
    13    10    11    1
    14    10    12   ar
    15    12    13   ar
    16     2     3   ar
    17     3     4   ar
    18     4    25    1
    19    25    26    1
    20    25    27    2
    21     4     5   ar
    22     5     6    1
    23    16    17   ar
    24    17    18   ar
    25    18    19   ar
    26    19    14   ar
    27     5     1   ar
    28    13     7   ar
    29    23    24    1
@<TRIPOS>MOLECULE
*****
 27 29 0 0 0
SMALL
GASTEIGER

@<TRIPOS>ATOM
      1 C         140.0600  141.4461  166.7087 C.ar    1  UNL1        0.0829
      2 C         140.1756  142.9330  166.5484 C.ar    1  UNL1        0.1029
      3 N         140.3031  143.5380  167.9150 N.ar    1  UNL1       -0.1822
      4 C         140.2663  142.4250  168.9200 C.ar    1  UNL1        0.3370
      5 N         140.1160  141.1321  168.1744 N.ar    1  UNL1       -0.2690
      6 C         140.0358  139.7653  168.7870 C.3     1  UNL1        0.1363
      7 C         140.1655  143.6832  165.2495 C.ar    1  UNL1        0.0194
      8 C         138.8646  144.1304  164.6517 C.ar    1  UNL1        0.0039
      9 C         138.8545  144.8806  163.3528 C.ar    1  UNL1        0.0297
     10 C         140.1455  145.1837  162.6517 C.ar    1  UNL1        0.1401
     11 F         140.1354  145.9339  161.3529 F       1  UNL1       -0.2042
     12 C         141.4465  144.7364  163.2496 C.ar    1  UNL1        0.0297
     13 C         141.4566  143.9862  164.5484 C.ar    1  UNL1        0.0039
     14 C         140.9820  138.7762  163.9209 C.ar    1  UNL1        0.1342
     15 C         141.1280  139.7739  165.0313 C.ar    1  UNL1        0.0360
     16 C         139.9139  140.4482  165.5982 C.ar    1  UNL1        0.0218
     17 C         138.5538  140.1247  165.0547 C.ar    1  UNL1        0.0223
     18 C         138.4078  139.1269  163.9443 C.ar    1  UNL1        0.1004
     19 N         139.6219  138.4526  163.3774 N.ar    1  UNL1       -0.2290
     20 C         143.9817  137.8881  161.4790 C.3     1  UNL1        0.0950
     21 C         142.7676  138.5624  162.0459 C.2     1  UNL1        0.2277
     22 O         142.1251  139.6972  161.3046 O.2     1  UNL1       -0.2747
     23 N         142.1960  138.1019  163.3540 N.am    1  UNL1       -0.2693
     24 H         142.6177  137.3571  163.8405 H       1  UNL1        0.1563
     25 S         140.3628  142.5780  170.4090 S.O     1  UNL1        0.0959
     26 C         141.5496  142.0290  171.1440 C.3     1  UNL1        0.3285
     27 O         139.2725  143.2799  171.1631 O.co2   1  UNL1       -0.6753
@<TRIPOS>UNITY_ATOM_ATTR
25 1
charge 1
27 1
charge -1
@<TRIPOS>BOND
     1    20    21    1
     2    21    22    2
     3    21    23   am
     4    23    14    1
     5    14    15   ar
     6    15    16   ar
     7    16     1    1
     8     1     2   ar
     9     2     7    1
    10     7     8   ar
    11     8     9   ar
    12     9    10   ar
    13    10    11    1
    14    10    12   ar
    15    12    13   ar
    16     2     3   ar
    17     3     4   ar
    18     4    25    1
    19    25    26    1
    20    25    27    2
    21     4     5   ar
    22     5     6    1
    23    16    17   ar
    24    17    18   ar
    25    18    19   ar
    26    19    14   ar
    27     5     1   ar
    28    13     7   ar
    29    23    24    1
@<TRIPOS>MOLECULE
*****
 27 29 0 0 0
SMALL
GASTEIGER

@<TRIPOS>ATOM
      1 C         141.1912  142.5729  166.4027 C.ar    1  UNL1        0.0829
      2 C         142.5929  142.5637  165.8689 C.ar    1  UNL1        0.1029
      3 N         143.5289  142.3834  167.0271 N.ar    1  UNL1       -0.1822
      4 C         142.7055  142.2811  168.2768 C.ar    1  UNL1        0.3370
      5 N         141.2608  142.3982  167.8909 N.ar    1  UNL1       -0.2690
      6 C         140.0910  142.3493  168.8285 C.3     1  UNL1        0.1363
      7 C         142.9892  142.7093  164.4295 C.ar    1  UNL1        0.0194
      8 C         143.6332  143.9776  163.9534 C.ar    1  UNL1        0.0039
      9 C         144.0295  144.1231  162.5141 C.ar    1  UNL1        0.0297
     10 C         143.7818  143.0004  161.5508 C.ar    1  UNL1        0.1401
     11 F         144.1781  143.1460  160.1114 F       1  UNL1       -0.2042
     12 C         143.1378  141.7321  162.0269 C.ar    1  UNL1        0.0297
     13 C         142.7415  141.5865  163.4662 C.ar    1  UNL1        0.0039
     14 C         138.0728  141.6913  164.1117 C.ar    1  UNL1        0.1342
     15 C         139.3244  141.5350  164.9235 C.ar    1  UNL1        0.0360
     16 C         139.9395  142.7293  165.5909 C.ar    1  UNL1        0.0218
     17 C         139.3031  144.0798  165.4465 C.ar    1  UNL1        0.0223
     18 C         138.0515  144.2361  164.6347 C.ar    1  UNL1        0.1004
     19 N         137.4363  143.0419  163.9673 N.ar    1  UNL1       -0.2290
     20 C         137.5179  138.6735  161.5948 C.3     1  UNL1        0.0950
     21 C         138.1331  139.8678  162.2621 C.2     1  UNL1        0.2277
     22 O         139.4237  140.4328  161.7472 O.2     1  UNL1       -0.2747
     23 N         137.4576  140.4971  163.4444 N.am    1  UNL1       -0.2693
     24 H         136.6106  140.1263  163.7824 H       1  UNL1        0.1563
     25 S         143.2341  142.0945  169.6681 S.O     1  UNL1        0.0959
     26 C         143.1496  140.7504  170.3285 C.3     1  UNL1        0.3285
     27 O         143.8473  143.2521  170.3990 O.co2   1  UNL1       -0.6753
@<TRIPOS>UNITY_ATOM_ATTR
25 1
charge 1
27 1
charge -1
@<TRIPOS>BOND
     1    20    21    1
     2    21    22    2
     3    21    23   am
     4    23    14    1
     5    14    15   ar
     6    15    16   ar
     7    16     1    1
     8     1     2   ar
     9     2     7    1
    10     7     8   ar
    11     8     9   ar
    12     9    10   ar
    13    10    11    1
    14    10    12   ar
    15    12    13   ar
    16     2     3   ar
    17     3     4   ar
    18     4    25    1
    19    25    26    1
    20    25    27    2
    21     4     5   ar
    22     5     6    1
    23    16    17   ar
    24    17    18   ar
    25    18    19   ar
    26    19    14   ar
    27     5     1   ar
    28    13     7   ar
    29    23    24    1
@<TRIPOS>MOLECULE
*****
 27 29 0 0 0
SMALL
GASTEIGER

@<TRIPOS>ATOM
      1 C         141.4785  140.1569  166.7375 C.ar    1  UNL1        0.0829
      2 C         140.0347  139.8171  166.5139 C.ar    1  UNL1        0.1029
      3 N         139.3249  139.9203  167.8313 N.ar    1  UNL1       -0.1822
      4 C         140.3299  140.3238  168.8691 C.ar    1  UNL1        0.3370
      5 N         141.6610  140.4701  168.1931 N.ar    1  UNL1       -0.2690
      6 C         142.9484  140.8608  168.8562 C.3     1  UNL1        0.1363
      7 C         139.4104  139.4403  165.2031 C.ar    1  UNL1        0.0194
      8 C         138.6159  140.4524  164.4322 C.ar    1  UNL1        0.0039
      9 C         137.9916  140.0756  163.1214 C.ar    1  UNL1        0.0297
     10 C         138.1617  138.6866  162.5815 C.ar    1  UNL1        0.1401
     11 F         137.5373  138.3098  161.2707 F       1  UNL1       -0.2042
     12 C         138.9562  137.6744  163.3524 C.ar    1  UNL1        0.0297
     13 C         139.5805  138.0512  164.6632 C.ar    1  UNL1        0.0039
     14 C         143.6439  141.2924  163.6115 C.ar    1  UNL1        0.1342
     15 C         142.5709  141.2698  164.6595 C.ar    1  UNL1        0.0360
     16 C         142.5515  140.1795  165.6895 C.ar    1  UNL1        0.0218
     17 C         143.6050  139.1120  165.6716 C.ar    1  UNL1        0.0223
     18 C         144.6780  139.1346  164.6237 C.ar    1  UNL1        0.1004
     19 N         144.6974  140.2249  163.5936 N.ar    1  UNL1       -0.2290
     20 C         142.9483  143.2938  160.2558 C.3     1  UNL1        0.0950
     21 C         142.9289  142.2036  161.2859 C.2     1  UNL1        0.2277
     22 O         142.1750  140.9342  161.0203 O.2     1  UNL1       -0.2747
     23 N         143.6633  142.3827  162.5815 N.am    1  UNL1       -0.2693
     24 H         144.1581  143.2158  162.7557 H       1  UNL1        0.1563
     25 S         140.0527  140.5427  170.3269 S.O     1  UNL1        0.0959
     26 C         140.3779  141.8620  170.9623 C.3     1  UNL1        0.3285
     27 O         139.4501  139.4424  171.1492 O.co2   1  UNL1       -0.6753
@<TRIPOS>UNITY_ATOM_ATTR
25 1
charge 1
27 1
charge -1
@<TRIPOS>BOND
     1    20    21    1
     2    21    22    2
     3    21    23   am
     4    23    14    1
     5    14    15   ar
     6    15    16   ar
     7    16     1    1
     8     1     2   ar
     9     2     7    1
    10     7     8   ar
    11     8     9   ar
    12     9    10   ar
    13    10    11    1
    14    10    12   ar
    15    12    13   ar
    16     2     3   ar
    17     3     4   ar
    18     4    25    1
    19    25    26    1
    20    25    27    2
    21     4     5   ar
    22     5     6    1
    23    16    17   ar
    24    17    18   ar
    25    18    19   ar
    26    19    14   ar
    27     5     1   ar
    28    13     7   ar
    29    23    24    1
@<TRIPOS>MOLECULE
*****
 27 29 0 0 0
SMALL
GASTEIGER

@<TRIPOS>ATOM
      1 C         142.0168  141.2913  165.5138 C.ar    1  UNL1        0.0829
      2 C         140.9214  142.3086  165.6371 C.ar    1  UNL1        0.1029
      3 N         140.1644  142.0238  166.9003 N.ar    1  UNL1       -0.1822
      4 C         140.7918  140.8304  167.5578 C.ar    1  UNL1        0.3370
      5 N         141.9367  140.3777  166.7008 N.ar    1  UNL1       -0.2690
      6 C         142.8424  139.2154  166.9816 C.3     1  UNL1        0.1363
      7 C         140.6336  143.4163  164.6675 C.ar    1  UNL1        0.0194
      8 C         139.2406  143.6155  164.1482 C.ar    1  UNL1        0.0039
      9 C         138.9528  144.7232  163.1786 C.ar    1  UNL1        0.0297
     10 C         140.0581  145.6317  162.7282 C.ar    1  UNL1        0.1401
     11 F         139.7703  146.7394  161.7586 F       1  UNL1       -0.2042
     12 C         141.4512  145.4325  163.2475 C.ar    1  UNL1        0.0297
     13 C         141.7390  144.3248  164.2172 C.ar    1  UNL1        0.0039
     14 C         143.6030  140.5761  161.9469 C.ar    1  UNL1        0.1342
     15 C         142.6032  140.6645  163.0616 C.ar    1  UNL1        0.0360
     16 C         143.0167  141.2029  164.3991 C.ar    1  UNL1        0.0218
     17 C         144.4300  141.6531  164.6220 C.ar    1  UNL1        0.0223
     18 C         145.4299  141.5648  163.5074 C.ar    1  UNL1        0.1004
     19 N         145.0164  141.0263  162.1698 N.ar    1  UNL1       -0.2290
     20 C         142.8704  138.0282  158.9937 C.3     1  UNL1        0.0950
     21 C         143.2839  138.5667  160.3313 C.2     1  UNL1        0.2277
     22 O         143.7919  137.6342  161.3908 O.2     1  UNL1       -0.2747
     23 N         143.1895  140.0376  160.6094 N.am    1  UNL1       -0.2693
     24 H         142.8561  140.6497  159.9140 H       1  UNL1        0.1563
     25 S         140.3517  140.2004  168.8459 S.O     1  UNL1        0.0959
     26 C         141.2782  140.1793  170.0254 C.3     1  UNL1        0.3285
     27 O         138.9852  139.5915  168.9546 O.co2   1  UNL1       -0.6753
@<TRIPOS>UNITY_ATOM_ATTR
25 1
charge 1
27 1
charge -1
@<TRIPOS>BOND
     1    20    21    1
     2    21    22    2
     3    21    23   am
     4    23    14    1
     5    14    15   ar
     6    15    16   ar
     7    16     1    1
     8     1     2   ar
     9     2     7    1
    10     7     8   ar
    11     8     9   ar
    12     9    10   ar
    13    10    11    1
    14    10    12   ar
    15    12    13   ar
    16     2     3   ar
    17     3     4   ar
    18     4    25    1
    19    25    26    1
    20    25    27    2
    21     4     5   ar
    22     5     6    1
    23    16    17   ar
    24    17    18   ar
    25    18    19   ar
    26    19    14   ar
    27     5     1   ar
    28    13     7   ar
    29    23    24    1
@<TRIPOS>MOLECULE
*****
 27 29 0 0 0
SMALL
GASTEIGER

@<TRIPOS>ATOM
      1 C         139.2269  140.7283  160.8899 C.ar    1  UNL1        0.0829
      2 C         138.6490  142.1068  161.0150 C.ar    1  UNL1        0.1029
      3 N         138.1007  142.5028  159.6761 N.ar    1  UNL1       -0.1822
      4 C         138.3398  141.3690  158.7235 C.ar    1  UNL1        0.3370
      5 N         139.0358  140.2723  159.4737 N.ar    1  UNL1       -0.2690
      6 C         139.4654  138.9515  158.9072 C.3     1  UNL1        0.1363
      7 C         138.6237  142.9427  162.2602 C.ar    1  UNL1        0.0194
      8 C         139.5822  144.0859  162.4159 C.ar    1  UNL1        0.0039
      9 C         139.5569  144.9217  163.6612 C.ar    1  UNL1        0.0297
     10 C         138.5731  144.6143  164.7509 C.ar    1  UNL1        0.1401
     11 F         138.5478  145.4501  165.9962 F       1  UNL1       -0.2042
     12 C         137.6145  143.4710  164.5953 C.ar    1  UNL1        0.0297
     13 C         137.6398  142.6352  163.3500 C.ar    1  UNL1        0.0039
     14 C         139.6937  138.4103  164.0772 C.ar    1  UNL1        0.1342
     15 C         139.0396  139.1951  162.9790 C.ar    1  UNL1        0.0360
     16 C         139.8811  139.9435  161.9882 C.ar    1  UNL1        0.0218
     17 C         141.3768  139.9073  162.0957 C.ar    1  UNL1        0.0223
     18 C         142.0309  139.1225  163.1940 C.ar    1  UNL1        0.1004
     19 N         141.1894  138.3740  164.1847 N.ar    1  UNL1       -0.2290
     20 C         137.3121  137.6538  167.1603 C.3     1  UNL1        0.0950
     21 C         138.1536  138.4023  166.1696 C.2     1  UNL1        0.2277
     22 O         138.2966  139.8914  166.2805 O.2     1  UNL1       -0.2747
     23 N         138.8522  137.6618  165.0680 N.am    1  UNL1       -0.2693
     24 H         138.7584  136.6845  164.9952 H       1  UNL1        0.1563
     25 S         137.9511  141.3374  157.2751 S.O     1  UNL1        0.0959
     26 C         138.7950  142.0447  156.2565 C.3     1  UNL1        0.3285
     27 O         136.7184  140.5986  156.8453 O.co2   1  UNL1       -0.6753
@<TRIPOS>UNITY_ATOM_ATTR
25 1
charge 1
27 1
charge -1
@<TRIPOS>BOND
     1    20    21    1
     2    21    22    2
     3    21    23   am
     4    23    14    1
     5    14    15   ar
     6    15    16   ar
     7    16     1    1
     8     1     2   ar
     9     2     7    1
    10     7     8   ar
    11     8     9   ar
    12     9    10   ar
    13    10    11    1
    14    10    12   ar
    15    12    13   ar
    16     2     3   ar
    17     3     4   ar
    18     4    25    1
    19    25    26    1
    20    25    27    2
    21     4     5   ar
    22     5     6    1
    23    16    17   ar
    24    17    18   ar
    25    18    19   ar
    26    19    14   ar
    27     5     1   ar
    28    13     7   ar
    29    23    24    1
