@<TRIPOS>MOLECULE
*****
 36 40 0 0 0
SMALL
GASTEIGER

@<TRIPOS>ATOM
      1 C         142.9592  139.3640  164.2562 C.ar    1  UNL1        0.0878
      2 C         143.9828  138.9354  165.2653 C.ar    1  UNL1        0.1543
      3 F         145.3207  138.4330  164.8097 F       1  UNL1       -0.2028
      4 C         143.6686  139.0092  166.7301 C.ar    1  UNL1        0.0356
      5 C         142.3307  139.5116  167.1858 C.ar    1  UNL1        0.0580
      6 C         142.0164  139.5854  168.6507 C.ar    1  UNL1        0.1996
      7 O         143.0401  139.1568  169.6599 O.2     1  UNL1       -0.2864
      8 C         140.6785  140.0878  169.1064 C.ar    1  UNL1        0.0701
      9 C         139.6549  140.5164  168.0972 C.ar    1  UNL1        0.0801
     10 N         139.9691  140.4426  166.6323 N.ar    1  UNL1       -0.3270
     11 C         141.3070  139.9402  166.1767 C.ar    1  UNL1        0.0750
     12 C         141.6213  139.8664  164.7118 C.ar    1  UNL1        0.0890
     13 CL        140.5977  140.2950  163.7026 Cl      1  UNL1       -0.0794
     14 C         143.3757  138.5326  160.4877 C.3     1  UNL1        0.0930
     15 C         144.1382  139.8206  160.5864 C.3     1  UNL1        0.0427
     16 C         144.0750  140.2888  162.0101 C.3     1  UNL1        0.0927
     17 N         143.2734  139.2902  162.7913 N.pl3   1  UNL1       -0.3033
     18 C         142.8412  138.2049  161.8504 C.3     1  UNL1        0.1104
     19 C         142.0948  138.0732  158.2745 C.2     1  UNL1        0.2339
     20 O         141.2019  139.2472  158.5475 O.2     1  UNL1       -0.2741
     21 N         143.1817  137.7159  159.2446 N.am    1  UNL1       -0.3035
     22 H         143.7677  136.9454  159.0655 H       1  UNL1        0.1495
     23 C         141.9008  137.2564  157.0314 C.3     1  UNL1        0.1499
     24 S         142.9634  136.2923  156.5941 S.3     1  UNL1       -0.0626
     25 C         140.9450  131.7146  154.9055 C.3     1  UNL1        0.1796
     26 N         141.7188  132.7270  155.6969 N.ar    1  UNL1       -0.1483
     27 N         142.5990  132.4384  156.8766 N.ar    1  UNL1       -0.0445
     28 N         143.1724  133.7388  157.3563 N.ar    1  UNL1       -0.1012
     29 C         142.6465  134.8312  156.4730 C.ar    1  UNL1        0.2321
     30 N         141.7481  134.2058  155.4475 N.ar    1  UNL1       -0.1231
     31 C         140.3643  140.1616  170.5712 C.2     1  UNL1        0.0774
     32 O         139.2449  139.3412  171.1404 O.co2   1  UNL1       -0.5444
     33 O         141.1694  141.0557  171.4669 O.co2   1  UNL1       -0.5444
     34 C         138.9455  140.8712  165.6232 C.3     1  UNL1        0.0857
     35 C         138.2790  141.9550  164.8287 C.3     1  UNL1        0.0245
     36 C         137.8390  140.5298  164.6697 C.3     1  UNL1        0.0245
@<TRIPOS>UNITY_ATOM_ATTR
32 1
charge -1
@<TRIPOS>BOND
     1    25    26    1
     2    26    27   ar
     3    27    28   ar
     4    28    29   ar
     5    29    24    1
     6    24    23    1
     7    23    19    1
     8    19    20    2
     9    19    21   am
    10    21    14    1
    11    14    15    1
    12    15    16    1
    13    16    17    1
    14    17     1    1
    15     1     2   ar
    16     2     3    1
    17     2     4   ar
    18     4     5   ar
    19     5     6   ar
    20     6     7    2
    21     6     8   ar
    22     8    31    1
    23    31    32   ar
    24    31    33   ar
    25     8     9   ar
    26     9    10   ar
    27    10    34    1
    28    34    35    1
    29    35    36    1
    30    10    11   ar
    31    11    12   ar
    32    12    13    1
    33    17    18    1
    34    29    30   ar
    35    30    26   ar
    36    18    14    1
    37    12     1   ar
    38    11     5   ar
    39    36    34    1
    40    21    22    1
@<TRIPOS>MOLECULE
*****
 36 40 0 0 0
SMALL
GASTEIGER

@<TRIPOS>ATOM
      1 C         139.8547  139.6199  162.8792 C.ar    1  UNL1        0.0878
      2 C         138.7038  138.8379  163.4395 C.ar    1  UNL1        0.1543
      3 F         137.8054  138.0636  162.5212 F       1  UNL1       -0.2028
      4 C         138.4514  138.8303  164.9181 C.ar    1  UNL1        0.0356
      5 C         139.3498  139.6046  165.8363 C.ar    1  UNL1        0.0580
      6 C         139.0973  139.5969  167.3150 C.ar    1  UNL1        0.1996
      7 O         137.9465  138.8149  167.8753 O.2     1  UNL1       -0.2864
      8 C         139.9958  140.3713  168.2332 C.ar    1  UNL1        0.0701
      9 C         141.1467  141.1533  167.6729 C.ar    1  UNL1        0.0801
     10 N         141.3991  141.1610  166.1943 N.ar    1  UNL1       -0.3270
     11 C         140.5007  140.3866  165.2761 C.ar    1  UNL1        0.0750
     12 C         140.7531  140.3943  163.7975 C.ar    1  UNL1        0.0890
     13 CL        141.9040  141.1763  163.2371 Cl      1  UNL1       -0.0794
     14 C         140.6813  138.9132  159.1532 C.3     1  UNL1        0.0930
     15 C         140.3101  140.3656  159.0974 C.3     1  UNL1        0.0427
     16 C         139.9553  140.8070  160.4863 C.3     1  UNL1        0.0927
     17 N         140.1072  139.6276  161.4006 N.pl3   1  UNL1       -0.3033
     18 C         140.5559  138.4572  160.5767 C.3     1  UNL1        0.1104
     19 C         142.5477  138.0107  157.5873 C.2     1  UNL1        0.2339
     20 O         143.5692  138.8031  158.3481 O.2     1  UNL1       -0.2741
     21 N         141.1037  138.0658  157.9899 N.am    1  UNL1       -0.3035
     22 H         140.4333  137.5458  157.4905 H       1  UNL1        0.1495
     23 C         142.9701  137.1633  156.4239 C.3     1  UNL1        0.1499
     24 S         142.1590  135.9621  156.0373 S.3     1  UNL1       -0.0626
     25 C         145.0737  131.9994  157.9559 C.3     1  UNL1        0.1796
     26 N         143.9594  132.7675  157.3092 N.ar    1  UNL1       -0.1483
     27 N         142.6975  132.1842  156.7458 N.ar    1  UNL1       -0.0445
     28 N         141.8695  133.3099  156.2008 N.ar    1  UNL1       -0.1012
     29 C         142.6196  134.5889  156.4273 C.ar    1  UNL1        0.2321
     30 N         143.9112  134.2537  157.1124 N.ar    1  UNL1       -0.1231
     31 C         139.7433  140.3636  169.7118 C.2     1  UNL1        0.0774
     32 O         138.7711  141.3356  170.3117 O.co2   1  UNL1       -0.5444
     33 O         140.4632  139.3839  170.5905 O.co2   1  UNL1       -0.5444
     34 C         142.5500  141.9430  165.6341 C.3     1  UNL1        0.0857
     35 C         143.1174  143.2347  165.1248 C.3     1  UNL1        0.0245
     36 C         143.9759  142.0057  165.1729 C.3     1  UNL1        0.0245
@<TRIPOS>UNITY_ATOM_ATTR
32 1
charge -1
@<TRIPOS>BOND
     1    25    26    1
     2    26    27   ar
     3    27    28   ar
     4    28    29   ar
     5    29    24    1
     6    24    23    1
     7    23    19    1
     8    19    20    2
     9    19    21   am
    10    21    14    1
    11    14    15    1
    12    15    16    1
    13    16    17    1
    14    17     1    1
    15     1     2   ar
    16     2     3    1
    17     2     4   ar
    18     4     5   ar
    19     5     6   ar
    20     6     7    2
    21     6     8   ar
    22     8    31    1
    23    31    32   ar
    24    31    33   ar
    25     8     9   ar
    26     9    10   ar
    27    10    34    1
    28    34    35    1
    29    35    36    1
    30    10    11   ar
    31    11    12   ar
    32    12    13    1
    33    17    18    1
    34    29    30   ar
    35    30    26   ar
    36    18    14    1
    37    12     1   ar
    38    11     5   ar
    39    36    34    1
    40    21    22    1
@<TRIPOS>MOLECULE
*****
 36 40 0 0 0
SMALL
GASTEIGER

@<TRIPOS>ATOM
      1 C         142.8330  141.0318  164.6161 C.ar    1  UNL1        0.0878
      2 C         143.7742  141.9170  165.3780 C.ar    1  UNL1        0.1543
      3 F         145.0456  142.3883  164.7365 F       1  UNL1       -0.2028
      4 C         143.4441  142.3309  166.7815 C.ar    1  UNL1        0.0356
      5 C         142.1727  141.8596  167.4230 C.ar    1  UNL1        0.0580
      6 C         141.8426  142.2736  168.8265 C.ar    1  UNL1        0.1996
      7 O         142.7838  143.1588  169.5884 O.2     1  UNL1       -0.2864
      8 C         140.5712  141.8023  169.4680 C.ar    1  UNL1        0.0701
      9 C         139.6300  140.9171  168.7060 C.ar    1  UNL1        0.0801
     10 N         139.9601  140.5032  167.3026 N.ar    1  UNL1       -0.3270
     11 C         141.2315  140.9744  166.6611 C.ar    1  UNL1        0.0750
     12 C         141.5617  140.5605  165.2577 C.ar    1  UNL1        0.0890
     13 CL        140.6204  139.6753  164.4957 Cl      1  UNL1       -0.0794
     14 C         143.2332  140.5292  160.7882 C.3     1  UNL1        0.0930
     15 C         144.1090  139.4325  161.3177 C.3     1  UNL1        0.0427
     16 C         144.0657  139.4873  162.8160 C.3     1  UNL1        0.0927
     17 N         143.1632  140.6178  163.2126 N.pl3   1  UNL1       -0.3033
     18 C         142.6487  141.2618  161.9594 C.3     1  UNL1        0.1104
     19 C         143.8282  141.8615  158.6385 C.2     1  UNL1        0.2339
     20 O         144.9187  142.5743  159.3822 O.2     1  UNL1       -0.2741
     21 N         142.9855  140.8390  159.3416 N.am    1  UNL1       -0.3035
     22 H         142.2698  140.3712  158.8536 H       1  UNL1        0.1495
     23 C         143.5805  142.1712  157.1919 C.3     1  UNL1        0.1499
     24 S         144.3307  141.4280  156.1266 S.3     1  UNL1       -0.0626
     25 C         142.5707  136.4697  156.5704 C.3     1  UNL1        0.1796
     26 N         143.4386  137.6529  156.2599 N.ar    1  UNL1       -0.1483
     27 N         144.8011  137.6069  155.6341 N.ar    1  UNL1       -0.0445
     28 N         145.3011  139.0154  155.5080 N.ar    1  UNL1       -0.1012
     29 C         144.2477  139.9320  156.0559 C.ar    1  UNL1        0.2321
     30 N         143.0966  139.0899  156.5205 N.ar    1  UNL1       -0.1231
     31 C         140.2411  142.2162  170.8714 C.2     1  UNL1        0.0774
     32 O         140.8149  141.4581  172.0316 O.co2   1  UNL1       -0.5444
     33 O         139.3371  143.3883  171.1147 O.co2   1  UNL1       -0.5444
     34 C         139.0189  139.6180  166.5407 C.3     1  UNL1        0.0857
     35 C         138.3772  138.2783  166.3325 C.3     1  UNL1        0.0245
     36 C         138.0305  139.4244  165.4293 C.3     1  UNL1        0.0245
@<TRIPOS>UNITY_ATOM_ATTR
32 1
charge -1
@<TRIPOS>BOND
     1    25    26    1
     2    26    27   ar
     3    27    28   ar
     4    28    29   ar
     5    29    24    1
     6    24    23    1
     7    23    19    1
     8    19    20    2
     9    19    21   am
    10    21    14    1
    11    14    15    1
    12    15    16    1
    13    16    17    1
    14    17     1    1
    15     1     2   ar
    16     2     3    1
    17     2     4   ar
    18     4     5   ar
    19     5     6   ar
    20     6     7    2
    21     6     8   ar
    22     8    31    1
    23    31    32   ar
    24    31    33   ar
    25     8     9   ar
    26     9    10   ar
    27    10    34    1
    28    34    35    1
    29    35    36    1
    30    10    11   ar
    31    11    12   ar
    32    12    13    1
    33    17    18    1
    34    29    30   ar
    35    30    26   ar
    36    18    14    1
    37    12     1   ar
    38    11     5   ar
    39    36    34    1
    40    21    22    1
@<TRIPOS>MOLECULE
*****
 36 40 0 0 0
SMALL
GASTEIGER

@<TRIPOS>ATOM
      1 C         141.9579  142.4975  163.8353 C.ar    1  UNL1        0.0878
      2 C         143.0549  143.2772  164.4976 C.ar    1  UNL1        0.1543
      3 F         143.8514  144.2718  163.7061 F       1  UNL1       -0.2028
      4 C         143.3554  143.0622  165.9513 C.ar    1  UNL1        0.0356
      5 C         142.5590  142.0676  166.7428 C.ar    1  UNL1        0.0580
      6 C         142.8596  141.8527  168.1966 C.ar    1  UNL1        0.1996
      7 O         143.9566  142.6323  168.8589 O.2     1  UNL1       -0.2864
      8 C         142.0631  140.8580  168.9880 C.ar    1  UNL1        0.0701
      9 C         140.9660  140.0784  168.3257 C.ar    1  UNL1        0.0801
     10 N         140.6655  140.2933  166.8719 N.ar    1  UNL1       -0.3270
     11 C         141.4620  141.2880  166.0805 C.ar    1  UNL1        0.0750
     12 C         141.1614  141.5029  164.6267 C.ar    1  UNL1        0.0890
     13 CL        140.0644  140.7233  163.9643 Cl      1  UNL1       -0.0794
     14 C         140.7619  143.6299  160.3206 C.3     1  UNL1        0.0930
     15 C         141.6276  142.4567  159.9681 C.3     1  UNL1        0.0427
     16 C         142.1810  141.8897  161.2418 C.3     1  UNL1        0.0927
     17 N         141.6573  142.7125  162.3815 N.pl3   1  UNL1       -0.3033
     18 C         140.7802  143.7880  161.8121 C.3     1  UNL1        0.1104
     19 C         140.7530  145.4459  158.4626 C.2     1  UNL1        0.2339
     20 O         142.2483  145.5349  158.5425 O.2     1  UNL1       -0.2741
     21 N         140.0098  144.4934  159.3516 N.am    1  UNL1       -0.3035
     22 H         139.0285  144.4349  159.2992 H       1  UNL1        0.1495
     23 C         140.0010  146.3093  157.4936 C.3     1  UNL1        0.1499
     24 S         139.6593  145.7850  156.1304 S.3     1  UNL1       -0.0626
     25 C         136.6900  141.4471  156.6265 C.3     1  UNL1        0.1796
     26 N         137.1844  142.7957  156.1943 N.ar    1  UNL1       -0.1483
     27 N         136.4978  143.7200  155.2329 N.ar    1  UNL1       -0.0445
     28 N         137.3413  144.9523  155.0920 N.ar    1  UNL1       -0.1012
     29 C         138.5493  144.7896  155.9662 C.ar    1  UNL1        0.2321
     30 N         138.4523  143.4567  156.6474 N.ar    1  UNL1       -0.1231
     31 C         142.3636  140.6431  170.4418 C.2     1  UNL1        0.0774
     32 O         141.6111  141.4143  171.4853 O.co2   1  UNL1       -0.5444
     33 O         143.4167  139.6568  170.8521 O.co2   1  UNL1       -0.5444
     34 C         139.5685  139.5137  166.2096 C.3     1  UNL1        0.0857
     35 C         138.1324  139.3870  165.7955 C.3     1  UNL1        0.0245
     36 C         139.1045  138.2901  165.4766 C.3     1  UNL1        0.0245
@<TRIPOS>UNITY_ATOM_ATTR
32 1
charge -1
@<TRIPOS>BOND
     1    25    26    1
     2    26    27   ar
     3    27    28   ar
     4    28    29   ar
     5    29    24    1
     6    24    23    1
     7    23    19    1
     8    19    20    2
     9    19    21   am
    10    21    14    1
    11    14    15    1
    12    15    16    1
    13    16    17    1
    14    17     1    1
    15     1     2   ar
    16     2     3    1
    17     2     4   ar
    18     4     5   ar
    19     5     6   ar
    20     6     7    2
    21     6     8   ar
    22     8    31    1
    23    31    32   ar
    24    31    33   ar
    25     8     9   ar
    26     9    10   ar
    27    10    34    1
    28    34    35    1
    29    35    36    1
    30    10    11   ar
    31    11    12   ar
    32    12    13    1
    33    17    18    1
    34    29    30   ar
    35    30    26   ar
    36    18    14    1
    37    12     1   ar
    38    11     5   ar
    39    36    34    1
    40    21    22    1
@<TRIPOS>MOLECULE
*****
 36 40 0 0 0
SMALL
GASTEIGER

@<TRIPOS>ATOM
      1 C         139.3394  139.6960  163.6944 C.ar    1  UNL1        0.0878
      2 C         138.9030  138.6646  164.6922 C.ar    1  UNL1        0.1543
      3 F         138.3416  137.3558  164.2212 F       1  UNL1       -0.2028
      4 C         139.0279  138.9420  166.1610 C.ar    1  UNL1        0.0356
      5 C         139.5893  140.2508  166.6320 C.ar    1  UNL1        0.0580
      6 C         139.7142  140.5282  168.1009 C.ar    1  UNL1        0.1996
      7 O         139.2778  139.4968  169.0987 O.2     1  UNL1       -0.2864
      8 C         140.2756  141.8370  168.5719 C.ar    1  UNL1        0.0701
      9 C         140.7120  142.8685  167.5740 C.ar    1  UNL1        0.0801
     10 N         140.5871  142.5911  166.1052 N.ar    1  UNL1       -0.3270
     11 C         140.0257  141.2823  165.6342 C.ar    1  UNL1        0.0750
     12 C         139.9008  141.0049  164.1654 C.ar    1  UNL1        0.0890
     13 CL        140.3372  142.0363  163.1675 Cl      1  UNL1       -0.0794
     14 C         138.5028  139.5300  159.9078 C.3     1  UNL1        0.0930
     15 C         139.5415  138.4539  160.0226 C.3     1  UNL1        0.0427
     16 C         139.9813  138.3851  161.4551 C.3     1  UNL1        0.0927
     17 N         139.2145  139.4187  162.2255 N.pl3   1  UNL1       -0.3033
     18 C         138.3007  140.1262  161.2693 C.3     1  UNL1        0.1104
     19 C         138.0170  141.3028  158.0717 C.2     1  UNL1        0.2339
     20 O         138.9545  142.2593  158.7473 O.2     1  UNL1       -0.2741
     21 N         137.7912  139.9381  158.6520 N.am    1  UNL1       -0.3035
     22 H         137.1760  139.3103  158.2086 H       1  UNL1        0.1495
     23 C         137.3054  141.7109  156.8159 C.3     1  UNL1        0.1499
     24 S         136.5376  140.6939  156.0246 S.3     1  UNL1       -0.0626
     25 C         131.6007  139.4925  157.4611 C.3     1  UNL1        0.1796
     26 N         132.7703  140.1118  156.7552 N.ar    1  UNL1       -0.1483
     27 N         132.6984  141.1244  155.6509 N.ar    1  UNL1       -0.0445
     28 N         134.1008  141.4657  155.2429 N.ar    1  UNL1       -0.1012
     29 C         135.0396  140.6640  156.0949 C.ar    1  UNL1        0.2321
     30 N         134.2172  139.8273  157.0295 N.ar    1  UNL1       -0.1231
     31 C         140.4005  142.1144  170.0407 C.2     1  UNL1        0.0774
     32 O         139.1755  142.4060  170.8557 O.co2   1  UNL1       -0.5444
     33 O         141.7505  142.1002  170.6945 O.co2   1  UNL1       -0.5444
     34 C         141.0235  143.6225  165.1074 C.3     1  UNL1        0.0857
     35 C         142.1065  144.2647  164.2921 C.3     1  UNL1        0.0245
     36 C         140.6965  144.7669  164.1945 C.3     1  UNL1        0.0245
@<TRIPOS>UNITY_ATOM_ATTR
32 1
charge -1
@<TRIPOS>BOND
     1    25    26    1
     2    26    27   ar
     3    27    28   ar
     4    28    29   ar
     5    29    24    1
     6    24    23    1
     7    23    19    1
     8    19    20    2
     9    19    21   am
    10    21    14    1
    11    14    15    1
    12    15    16    1
    13    16    17    1
    14    17     1    1
    15     1     2   ar
    16     2     3    1
    17     2     4   ar
    18     4     5   ar
    19     5     6   ar
    20     6     7    2
    21     6     8   ar
    22     8    31    1
    23    31    32   ar
    24    31    33   ar
    25     8     9   ar
    26     9    10   ar
    27    10    34    1
    28    34    35    1
    29    35    36    1
    30    10    11   ar
    31    11    12   ar
    32    12    13    1
    33    17    18    1
    34    29    30   ar
    35    30    26   ar
    36    18    14    1
    37    12     1   ar
    38    11     5   ar
    39    36    34    1
    40    21    22    1
@<TRIPOS>MOLECULE
*****
 36 40 0 0 0
SMALL
GASTEIGER

@<TRIPOS>ATOM
      1 C         140.6593  139.5797  164.2943 C.ar    1  UNL1        0.0878
      2 C         141.3653  138.6717  165.2571 C.ar    1  UNL1        0.1543
      3 F         141.7816  137.2972  164.8241 F       1  UNL1       -0.2028
      4 C         141.6551  139.1383  166.6529 C.ar    1  UNL1        0.0356
      5 C         141.2389  140.5128  167.0859 C.ar    1  UNL1        0.0580
      6 C         141.5287  140.9793  168.4818 C.ar    1  UNL1        0.1996
      7 O         142.2348  140.0713  169.4446 O.2     1  UNL1       -0.2864
      8 C         141.1125  142.3538  168.9148 C.ar    1  UNL1        0.0701
      9 C         140.4064  143.2617  167.9519 C.ar    1  UNL1        0.0801
     10 N         140.1166  142.7952  166.5561 N.ar    1  UNL1       -0.3270
     11 C         140.5328  141.4207  166.1231 C.ar    1  UNL1        0.0750
     12 C         140.2430  140.9542  164.7273 C.ar    1  UNL1        0.0890
     13 CL        139.5369  141.8622  163.7644 Cl      1  UNL1       -0.0794
     14 C         140.5581  138.7160  160.5115 C.3     1  UNL1        0.0930
     15 C         139.2890  138.0747  160.9893 C.3     1  UNL1        0.0427
     16 C         139.1724  138.3202  162.4645 C.3     1  UNL1        0.0927
     17 N         140.3694  139.1132  162.8984 N.pl3   1  UNL1       -0.3033
     18 C         141.2258  139.3578  161.6914 C.3     1  UNL1        0.1104
     19 C         142.3127  137.9510  158.7548 C.2     1  UNL1        0.2339
     20 O         143.0444  137.1870  159.8183 O.2     1  UNL1       -0.2741
     21 N         141.0695  138.7155  159.1014 N.am    1  UNL1       -0.3035
     22 H         140.5893  139.2170  158.4035 H       1  UNL1        0.1495
     23 C         142.8241  137.9506  157.3447 C.3     1  UNL1        0.1499
     24 S         142.0155  137.3135  156.2537 S.3     1  UNL1       -0.0626
     25 C         143.1013  132.1880  156.9096 C.3     1  UNL1        0.1796
     26 N         142.4853  133.4641  156.4178 N.ar    1  UNL1       -0.1483
     27 N         141.3971  133.5799  155.3920 N.ar    1  UNL1       -0.0445
     28 N         141.0886  135.0359  155.2056 N.ar    1  UNL1       -0.1012
     29 C         141.9862  135.8201  156.1163 C.ar    1  UNL1        0.2321
     30 N         142.8494  134.8486  156.8655 N.ar    1  UNL1       -0.1231
     31 C         141.4022  142.8203  170.3106 C.2     1  UNL1        0.0774
     32 O         142.6592  143.5862  170.5997 O.co2   1  UNL1       -0.5444
     33 O         140.4351  142.5209  171.4175 O.co2   1  UNL1       -0.5444
     34 C         139.4105  143.7032  165.5933 C.3     1  UNL1        0.0857
     35 C         139.4550  144.8012  164.5724 C.3     1  UNL1        0.0245
     36 C         138.1431  144.1778  164.9466 C.3     1  UNL1        0.0245
@<TRIPOS>UNITY_ATOM_ATTR
32 1
charge -1
@<TRIPOS>BOND
     1    25    26    1
     2    26    27   ar
     3    27    28   ar
     4    28    29   ar
     5    29    24    1
     6    24    23    1
     7    23    19    1
     8    19    20    2
     9    19    21   am
    10    21    14    1
    11    14    15    1
    12    15    16    1
    13    16    17    1
    14    17     1    1
    15     1     2   ar
    16     2     3    1
    17     2     4   ar
    18     4     5   ar
    19     5     6   ar
    20     6     7    2
    21     6     8   ar
    22     8    31    1
    23    31    32   ar
    24    31    33   ar
    25     8     9   ar
    26     9    10   ar
    27    10    34    1
    28    34    35    1
    29    35    36    1
    30    10    11   ar
    31    11    12   ar
    32    12    13    1
    33    17    18    1
    34    29    30   ar
    35    30    26   ar
    36    18    14    1
    37    12     1   ar
    38    11     5   ar
    39    36    34    1
    40    21    22    1
@<TRIPOS>MOLECULE
*****
 36 40 0 0 0
SMALL
GASTEIGER

@<TRIPOS>ATOM
      1 C         139.5142  139.8405  165.2714 C.ar    1  UNL1        0.0878
      2 C         138.6806  139.5141  166.4749 C.ar    1  UNL1        0.1543
      3 F         137.4331  138.6951  166.3234 F       1  UNL1       -0.2028
      4 C         139.0945  140.0067  167.8298 C.ar    1  UNL1        0.0356
      5 C         140.3420  140.8258  167.9813 C.ar    1  UNL1        0.0580
      6 C         140.7559  141.3184  169.3363 C.ar    1  UNL1        0.1996
      7 O         139.9223  140.9920  170.5399 O.2     1  UNL1       -0.2864
      8 C         142.0034  142.1374  169.4878 C.ar    1  UNL1        0.0701
      9 C         142.8370  142.4638  168.2842 C.ar    1  UNL1        0.0801
     10 N         142.4231  141.9712  166.9292 N.ar    1  UNL1       -0.3270
     11 C         141.1756  141.1522  166.7778 C.ar    1  UNL1        0.0750
     12 C         140.7617  140.6596  165.4228 C.ar    1  UNL1        0.0890
     13 CL        141.5953  140.9860  164.2192 Cl      1  UNL1       -0.0794
     14 C         138.3955  139.2984  161.5943 C.3     1  UNL1        0.0930
     15 C         138.5313  137.8815  162.0679 C.3     1  UNL1        0.0427
     16 C         138.9669  137.9122  163.5030 C.3     1  UNL1        0.0927
     17 N         139.1003  139.3479  163.9163 N.pl3   1  UNL1       -0.3033
     18 C         138.7472  140.2046  162.7367 C.3     1  UNL1        0.1104
     19 C         138.9442  139.6207  159.0754 C.2     1  UNL1        0.2339
     20 O         140.3221  139.0745  159.3056 O.2     1  UNL1       -0.2741
     21 N         137.9809  139.7326  160.2198 N.am    1  UNL1       -0.3035
     22 H         137.0765  140.0911  160.0687 H       1  UNL1        0.1495
     23 C         138.5295  140.0550  157.7008 C.3     1  UNL1        0.1499
     24 S         138.0216  141.4483  157.4758 S.3     1  UNL1       -0.0626
     25 C         140.9903  145.7520  158.2146 C.3     1  UNL1        0.1796
     26 N         140.0753  144.5899  158.4645 N.ar    1  UNL1       -0.1483
     27 N         139.4672  144.2143  159.7833 N.ar    1  UNL1       -0.0445
     28 N         138.6239  142.9917  159.5734 N.ar    1  UNL1       -0.1012
     29 C         138.7108  142.6118  158.1249 C.ar    1  UNL1        0.2321
     30 N         139.6078  143.5996  157.4397 N.ar    1  UNL1       -0.1231
     31 C         142.4173  142.6300  170.8427 C.2     1  UNL1        0.0774
     32 O         143.3250  143.8180  170.9638 O.co2   1  UNL1       -0.5444
     33 O         141.9235  141.9346  172.0767 O.co2   1  UNL1       -0.5444
     34 C         143.2567  142.2976  165.7257 C.3     1  UNL1        0.0857
     35 C         144.3298  141.9207  164.7477 C.3     1  UNL1        0.0245
     36 C         143.6275  143.2398  164.6191 C.3     1  UNL1        0.0245
@<TRIPOS>UNITY_ATOM_ATTR
32 1
charge -1
@<TRIPOS>BOND
     1    25    26    1
     2    26    27   ar
     3    27    28   ar
     4    28    29   ar
     5    29    24    1
     6    24    23    1
     7    23    19    1
     8    19    20    2
     9    19    21   am
    10    21    14    1
    11    14    15    1
    12    15    16    1
    13    16    17    1
    14    17     1    1
    15     1     2   ar
    16     2     3    1
    17     2     4   ar
    18     4     5   ar
    19     5     6   ar
    20     6     7    2
    21     6     8   ar
    22     8    31    1
    23    31    32   ar
    24    31    33   ar
    25     8     9   ar
    26     9    10   ar
    27    10    34    1
    28    34    35    1
    29    35    36    1
    30    10    11   ar
    31    11    12   ar
    32    12    13    1
    33    17    18    1
    34    29    30   ar
    35    30    26   ar
    36    18    14    1
    37    12     1   ar
    38    11     5   ar
    39    36    34    1
    40    21    22    1
@<TRIPOS>MOLECULE
*****
 36 40 0 0 0
SMALL
GASTEIGER

@<TRIPOS>ATOM
      1 C         140.8422  139.5219  164.4408 C.ar    1  UNL1        0.0878
      2 C         141.6323  138.6106  165.3325 C.ar    1  UNL1        0.1543
      3 F         142.0360  137.2503  164.8463 F       1  UNL1       -0.2028
      4 C         142.0188  139.0597  166.7105 C.ar    1  UNL1        0.0356
      5 C         141.6152  140.4201  167.1968 C.ar    1  UNL1        0.0580
      6 C         142.0017  140.8691  168.5749 C.ar    1  UNL1        0.1996
      7 O         142.7918  139.9578  169.4666 O.2     1  UNL1       -0.2864
      8 C         141.5981  142.2295  169.0612 C.ar    1  UNL1        0.0701
      9 C         140.8079  143.1408  168.1694 C.ar    1  UNL1        0.0801
     10 N         140.4214  142.6918  166.7914 N.ar    1  UNL1       -0.3270
     11 C         140.8251  141.3314  166.3051 C.ar    1  UNL1        0.0750
     12 C         140.4386  140.8823  164.9271 C.ar    1  UNL1        0.0890
     13 CL        139.6484  141.7936  164.0353 Cl      1  UNL1       -0.0794
     14 C         140.4811  138.6997  160.6647 C.3     1  UNL1        0.0930
     15 C         139.2408  138.0642  161.2196 C.3     1  UNL1        0.0427
     16 C         139.2251  138.2949  162.7017 C.3     1  UNL1        0.0927
     17 N         140.4557  139.0729  163.0627 N.pl3   1  UNL1       -0.3033
     18 C         141.2319  139.3231  161.8038 C.3     1  UNL1        0.1104
     19 C         142.1653  138.0267  158.8044 C.2     1  UNL1        0.2339
     20 O         143.0168  137.3332  159.8262 O.2     1  UNL1       -0.2741
     21 N         140.8974  138.7099  159.2236 N.am    1  UNL1       -0.3035
     22 H         140.3386  139.1651  158.5530 H       1  UNL1        0.1495
     23 C         142.5816  138.0369  157.3634 C.3     1  UNL1        0.1499
     24 S         142.0914  136.9669  156.4334 S.3     1  UNL1       -0.0626
     25 C         138.0816  137.0439  152.9990 C.3     1  UNL1        0.1796
     26 N         138.8670  137.0867  154.2762 N.ar    1  UNL1       -0.1483
     27 N         138.3019  137.2755  155.6527 N.ar    1  UNL1       -0.0445
     28 N         139.4410  137.2536  156.6284 N.ar    1  UNL1       -0.1012
     29 C         140.7100  137.0513  155.8548 C.ar    1  UNL1        0.2321
     30 N         140.3552  136.9481  154.4010 N.ar    1  UNL1       -0.1231
     31 C         141.9846  142.6786  170.4392 C.2     1  UNL1        0.0774
     32 O         141.2387  142.1612  171.6333 O.co2   1  UNL1       -0.5444
     33 O         143.1169  143.6451  170.6230 O.co2   1  UNL1       -0.5444
     34 C         139.6313  143.6031  165.8996 C.3     1  UNL1        0.0857
     35 C         138.3123  144.1596  165.4520 C.3     1  UNL1        0.0245
     36 C         139.5818  144.6250  164.8028 C.3     1  UNL1        0.0245
@<TRIPOS>UNITY_ATOM_ATTR
32 1
charge -1
@<TRIPOS>BOND
     1    25    26    1
     2    26    27   ar
     3    27    28   ar
     4    28    29   ar
     5    29    24    1
     6    24    23    1
     7    23    19    1
     8    19    20    2
     9    19    21   am
    10    21    14    1
    11    14    15    1
    12    15    16    1
    13    16    17    1
    14    17     1    1
    15     1     2   ar
    16     2     3    1
    17     2     4   ar
    18     4     5   ar
    19     5     6   ar
    20     6     7    2
    21     6     8   ar
    22     8    31    1
    23    31    32   ar
    24    31    33   ar
    25     8     9   ar
    26     9    10   ar
    27    10    34    1
    28    34    35    1
    29    35    36    1
    30    10    11   ar
    31    11    12   ar
    32    12    13    1
    33    17    18    1
    34    29    30   ar
    35    30    26   ar
    36    18    14    1
    37    12     1   ar
    38    11     5   ar
    39    36    34    1
    40    21    22    1
@<TRIPOS>MOLECULE
*****
 36 40 0 0 0
SMALL
GASTEIGER

@<TRIPOS>ATOM
      1 C         140.3185  139.3219  164.6155 C.ar    1  UNL1        0.0878
      2 C         139.3136  138.6558  165.5080 C.ar    1  UNL1        0.1543
      3 F         138.4958  137.5091  164.9919 F       1  UNL1       -0.2028
      4 C         139.1265  139.1365  166.9164 C.ar    1  UNL1        0.0356
      5 C         139.9442  140.2832  167.4324 C.ar    1  UNL1        0.0580
      6 C         139.7571  140.7639  168.8410 C.ar    1  UNL1        0.1996
      7 O         138.7522  140.0979  169.7335 O.2     1  UNL1       -0.2864
      8 C         140.5748  141.9107  169.3570 C.ar    1  UNL1        0.0701
      9 C         141.5797  142.5767  168.4645 C.ar    1  UNL1        0.0801
     10 N         141.7668  142.0960  167.0560 N.ar    1  UNL1       -0.3270
     11 C         140.9491  140.9493  166.5400 C.ar    1  UNL1        0.0750
     12 C         141.1362  140.4686  165.1315 C.ar    1  UNL1        0.0890
     13 CL        142.1411  141.1347  164.2389 Cl      1  UNL1       -0.0794
     14 C         140.1580  138.4449  160.8378 C.3     1  UNL1        0.0930
     15 C         141.4292  137.7582  161.2410 C.3     1  UNL1        0.0427
     16 C         141.6440  138.0031  162.7052 C.3     1  UNL1        0.0927
     17 N         140.5056  138.8412  163.2069 N.pl3   1  UNL1       -0.3033
     18 C         139.5872  139.1142  162.0528 C.3     1  UNL1        0.1104
     19 C         140.0969  139.4006  158.4227 C.2     1  UNL1        0.2339
     20 O         141.2274  140.3269  158.7606 O.2     1  UNL1       -0.2741
     21 N         139.5622  138.4596  159.4613 N.am    1  UNL1       -0.3035
     22 H         138.8203  137.8517  159.2395 H       1  UNL1        0.1495
     23 C         139.5011  139.4154  157.0461 C.3     1  UNL1        0.1499
     24 S         139.9574  138.4202  156.0207 S.3     1  UNL1       -0.0626
     25 C         143.6354  134.7011  156.7418 C.3     1  UNL1        0.1796
     26 N         142.9738  136.0269  156.5086 N.ar    1  UNL1       -0.1483
     27 N         143.6732  137.3414  156.3271 N.ar    1  UNL1       -0.0445
     28 N         142.6283  138.3980  156.1223 N.ar    1  UNL1       -0.1012
     29 C         141.2832  137.7364  156.1771 C.ar    1  UNL1        0.2321
     30 N         141.4968  136.2710  156.4159 N.ar    1  UNL1       -0.1231
     31 C         140.3877  142.3914  170.7655 C.2     1  UNL1        0.0774
     32 O         141.3609  141.9851  171.8322 O.co2   1  UNL1       -0.5444
     33 O         139.2273  143.2784  171.1074 O.co2   1  UNL1       -0.5444
     34 C         142.7717  142.7621  166.1635 C.3     1  UNL1        0.0857
     35 C         143.0874  143.6925  165.0301 C.3     1  UNL1        0.0245
     36 C         144.1965  142.9854  165.7511 C.3     1  UNL1        0.0245
@<TRIPOS>UNITY_ATOM_ATTR
32 1
charge -1
@<TRIPOS>BOND
     1    25    26    1
     2    26    27   ar
     3    27    28   ar
     4    28    29   ar
     5    29    24    1
     6    24    23    1
     7    23    19    1
     8    19    20    2
     9    19    21   am
    10    21    14    1
    11    14    15    1
    12    15    16    1
    13    16    17    1
    14    17     1    1
    15     1     2   ar
    16     2     3    1
    17     2     4   ar
    18     4     5   ar
    19     5     6   ar
    20     6     7    2
    21     6     8   ar
    22     8    31    1
    23    31    32   ar
    24    31    33   ar
    25     8     9   ar
    26     9    10   ar
    27    10    34    1
    28    34    35    1
    29    35    36    1
    30    10    11   ar
    31    11    12   ar
    32    12    13    1
    33    17    18    1
    34    29    30   ar
    35    30    26   ar
    36    18    14    1
    37    12     1   ar
    38    11     5   ar
    39    36    34    1
    40    21    22    1
