@<TRIPOS>MOLECULE
*****
 21 23 0 0 0
SMALL
GASTEIGER

@<TRIPOS>ATOM
      1 N         138.8533  139.4827  165.2205 N.am    1  UNL1       -0.2035
      2 C         138.1559  138.9041  166.4159 C.3     1  UNL1        0.1350
      3 C         138.7692  139.5047  167.6460 C.3     1  UNL1        0.1229
      4 N         139.8455  140.4545  167.2109 N.am    1  UNL1       -0.2403
      5 C         139.8975  140.4409  165.7119 C.2     1  UNL1        0.3244
      6 O         140.8300  141.2445  164.8547 O.2     1  UNL1       -0.2507
      7 C         140.7169  141.2741  168.1160 C.ar    1  UNL1        0.0562
      8 C         142.1203  140.8323  168.4078 C.ar    1  UNL1        0.0150
      9 C         142.9916  141.6519  169.3128 C.ar    1  UNL1        0.0021
     10 C         142.4596  142.9132  169.9259 C.ar    1  UNL1        0.0115
     11 C         141.0562  143.3550  169.6341 C.ar    1  UNL1        0.0589
     12 CL        140.5241  144.6164  170.2472 Cl      1  UNL1       -0.0822
     13 C         140.1848  142.5355  168.7291 C.ar    1  UNL1        0.0263
     14 C         137.8796  140.0641  162.8001 C.3     1  UNL1        0.1056
     15 C         137.7919  139.3391  161.4899 C.3     1  UNL1        0.0217
     16 C         138.4164  137.9867  161.6658 C.3     1  UNL1        0.0206
     17 C         138.8900  137.8759  163.0847 C.3     1  UNL1        0.0923
     18 N         138.5582  139.1598  163.7857 N.3     1  UNL1       -0.2003
     19 C         137.3768  141.4501  163.0761 C.3     1  UNL1        0.1598
     20 C         137.7999  144.0124  162.9991 C.3     1  UNL1        0.1742
     21 O         138.3281  142.6098  163.0611 O.3     1  UNL1       -0.3496
@<TRIPOS>BOND
     1    20    21    1
     2    21    19    1
     3    14    19    1
     4    14    15    1
     5    15    16    1
     6    16    17    1
     7    17    18    1
     8    18     1    1
     9     1     2    1
    10     2     3    1
    11     3     4    1
    12     4     7    1
    13     7     8   ar
    14     8     9   ar
    15     9    10   ar
    16    10    11   ar
    17    11    12    1
    18    11    13   ar
    19     4     5   am
    20     5     6    2
    21    18    14    1
    22     5     1   am
    23    13     7   ar
@<TRIPOS>MOLECULE
*****
 21 23 0 0 0
SMALL
GASTEIGER

@<TRIPOS>ATOM
      1 N         140.4462  140.7004  163.9244 N.am    1  UNL1       -0.2035
      2 C         141.5725  141.5857  163.4797 C.3     1  UNL1        0.1350
      3 C         142.1118  142.2922  164.6880 C.3     1  UNL1        0.1229
      4 N         141.3188  141.8436  165.8796 N.am    1  UNL1       -0.2403
      5 C         140.2894  140.8598  165.4077 C.2     1  UNL1        0.3244
      6 O         139.2804  140.1586  166.2679 O.2     1  UNL1       -0.2507
      7 C         141.5198  142.2988  167.2947 C.ar    1  UNL1        0.0562
      8 C         140.3828  142.9184  168.0519 C.ar    1  UNL1        0.0150
      9 C         140.5839  143.3736  169.4669 C.ar    1  UNL1        0.0021
     10 C         141.9219  143.2092  170.1247 C.ar    1  UNL1        0.0115
     11 C         143.0588  142.5896  169.3675 C.ar    1  UNL1        0.0589
     12 CL        144.3968  142.4251  170.0253 Cl      1  UNL1       -0.0822
     13 C         142.8578  142.1344  167.9525 C.ar    1  UNL1        0.0263
     14 C         138.2034  140.0589  162.6194 C.3     1  UNL1        0.1056
     15 C         137.7757  138.9199  161.7421 C.3     1  UNL1        0.0217
     16 C         138.9295  137.9690  161.6215 C.3     1  UNL1        0.0206
     17 C         140.0703  138.5203  162.4243 C.3     1  UNL1        0.0923
     18 N         139.6216  139.8118  163.0411 N.3     1  UNL1       -0.2003
     19 C         137.3610  141.2378  163.0071 C.3     1  UNL1        0.1598
     20 C         137.8450  143.7853  162.8468 C.3     1  UNL1        0.1742
     21 O         137.4209  142.5004  162.1994 O.3     1  UNL1       -0.3496
@<TRIPOS>BOND
     1    20    21    1
     2    21    19    1
     3    14    19    1
     4    14    15    1
     5    15    16    1
     6    16    17    1
     7    17    18    1
     8    18     1    1
     9     1     2    1
    10     2     3    1
    11     3     4    1
    12     4     7    1
    13     7     8   ar
    14     8     9   ar
    15     9    10   ar
    16    10    11   ar
    17    11    12    1
    18    11    13   ar
    19     4     5   am
    20     5     6    2
    21    18    14    1
    22     5     1   am
    23    13     7   ar
@<TRIPOS>MOLECULE
*****
 21 23 0 0 0
SMALL
GASTEIGER

@<TRIPOS>ATOM
      1 N         141.5926  140.4615  163.6776 N.am    1  UNL1       -0.2035
      2 C         140.5860  141.5202  163.3370 C.3     1  UNL1        0.1350
      3 C         139.9762  142.0091  164.6172 C.3     1  UNL1        0.1229
      4 N         140.6059  141.2527  165.7491 N.am    1  UNL1       -0.2403
      5 C         141.6049  140.2962  165.1684 C.2     1  UNL1        0.3244
      6 O         142.4651  139.3420  165.9426 O.2     1  UNL1       -0.2507
      7 C         140.2917  141.4228  167.2060 C.ar    1  UNL1        0.0562
      8 C         139.6990  140.2851  167.9833 C.ar    1  UNL1        0.0150
      9 C         139.3849  140.4553  169.4401 C.ar    1  UNL1        0.0021
     10 C         139.6635  141.7632  170.1196 C.ar    1  UNL1        0.0115
     11 C         140.2562  142.9009  169.3424 C.ar    1  UNL1        0.0589
     12 CL        140.5348  144.2088  170.0219 Cl      1  UNL1       -0.0822
     13 C         140.5703  142.7307  167.8856 C.ar    1  UNL1        0.0263
     14 C         142.3184  138.2414  162.3781 C.3     1  UNL1        0.1056
     15 C         143.3585  137.9058  161.3507 C.3     1  UNL1        0.0217
     16 C         144.1213  139.1587  161.0370 C.3     1  UNL1        0.0206
     17 C         143.5526  140.2686  161.8705 C.3     1  UNL1        0.0923
     18 N         142.4384  139.7016  162.6993 N.3     1  UNL1       -0.2003
     19 C         141.3316  137.2847  162.9788 C.3     1  UNL1        0.1598
     20 C         138.8814  138.0967  163.2736 C.3     1  UNL1        0.1742
     21 O         139.9028  137.2957  162.5220 O.3     1  UNL1       -0.3496
@<TRIPOS>BOND
     1    20    21    1
     2    21    19    1
     3    14    19    1
     4    14    15    1
     5    15    16    1
     6    16    17    1
     7    17    18    1
     8    18     1    1
     9     1     2    1
    10     2     3    1
    11     3     4    1
    12     4     7    1
    13     7     8   ar
    14     8     9   ar
    15     9    10   ar
    16    10    11   ar
    17    11    12    1
    18    11    13   ar
    19     4     5   am
    20     5     6    2
    21    18    14    1
    22     5     1   am
    23    13     7   ar
@<TRIPOS>MOLECULE
*****
 21 23 0 0 0
SMALL
GASTEIGER

@<TRIPOS>ATOM
      1 N         140.3250  140.7678  163.7349 N.am    1  UNL1       -0.2035
      2 C         141.4015  141.7175  163.2998 C.3     1  UNL1        0.1350
      3 C         141.9246  142.4157  164.5200 C.3     1  UNL1        0.1229
      4 N         141.1714  141.8976  165.7092 N.am    1  UNL1       -0.2403
      5 C         140.1828  140.8791  165.2240 C.2     1  UNL1        0.3244
      6 O         139.2208  140.1075  166.0779 O.2     1  UNL1       -0.2507
      7 C         141.3716  142.3233  167.1336 C.ar    1  UNL1        0.0562
      8 C         140.2431  142.9553  167.8932 C.ar    1  UNL1        0.0150
      9 C         140.4433  143.3809  169.3175 C.ar    1  UNL1        0.0021
     10 C         141.7720  143.1744  169.9822 C.ar    1  UNL1        0.0115
     11 C         142.9005  142.5424  169.2227 C.ar    1  UNL1        0.0589
     12 CL        144.2292  142.3360  169.8874 Cl      1  UNL1       -0.0822
     13 C         142.7003  142.1168  167.7983 C.ar    1  UNL1        0.0263
     14 C         140.0532  138.6622  162.1110 C.3     1  UNL1        0.1056
     15 C         138.9193  138.0607  161.3348 C.3     1  UNL1        0.0217
     16 C         137.6956  138.8921  161.5825 C.3     1  UNL1        0.0206
     17 C         138.0732  140.0073  162.5118 C.3     1  UNL1        0.0923
     18 N         139.5303  139.8652  162.8383 N.3     1  UNL1       -0.2003
     19 C         141.4626  138.1504  162.1524 C.3     1  UNL1        0.1598
     20 C         141.2409  137.1924  164.5572 C.3     1  UNL1        0.1742
     21 O         142.0863  137.7762  163.4643 O.3     1  UNL1       -0.3496
@<TRIPOS>BOND
     1    20    21    1
     2    21    19    1
     3    14    19    1
     4    14    15    1
     5    15    16    1
     6    16    17    1
     7    17    18    1
     8    18     1    1
     9     1     2    1
    10     2     3    1
    11     3     4    1
    12     4     7    1
    13     7     8   ar
    14     8     9   ar
    15     9    10   ar
    16    10    11   ar
    17    11    12    1
    18    11    13   ar
    19     4     5   am
    20     5     6    2
    21    18    14    1
    22     5     1   am
    23    13     7   ar
@<TRIPOS>MOLECULE
*****
 21 23 0 0 0
SMALL
GASTEIGER

@<TRIPOS>ATOM
      1 N         141.4608  140.0824  163.6739 N.am    1  UNL1       -0.2035
      2 C         140.6607  141.3004  163.3183 C.3     1  UNL1        0.1350
      3 C         140.1109  141.8806  164.5876 C.3     1  UNL1        0.1229
      4 N         140.5711  141.0212  165.7276 N.am    1  UNL1       -0.2403
      5 C         141.4054  139.9099  165.1629 C.2     1  UNL1        0.3244
      6 O         142.0680  138.8177  165.9491 O.2     1  UNL1       -0.2507
      7 C         140.2529  141.2355  167.1777 C.ar    1  UNL1        0.0562
      8 C         139.6205  140.1353  167.9773 C.ar    1  UNL1        0.0150
      9 C         139.3023  140.3496  169.4274 C.ar    1  UNL1        0.0021
     10 C         139.6166  141.6642  170.0779 C.ar    1  UNL1        0.0115
     11 C         140.2491  142.7644  169.2783 C.ar    1  UNL1        0.0589
     12 CL        140.5634  144.0790  169.9288 Cl      1  UNL1       -0.0822
     13 C         140.5672  142.5501  167.8282 C.ar    1  UNL1        0.0263
     14 C         143.6557  138.8821  162.7324 C.3     1  UNL1        0.1056
     15 C         143.9507  137.9555  161.5903 C.3     1  UNL1        0.0217
     16 C         142.6658  137.6939  160.8618 C.3     1  UNL1        0.0206
     17 C         141.5767  138.4588  161.5537 C.3     1  UNL1        0.0923
     18 N         142.1885  139.1931  162.7097 N.3     1  UNL1       -0.2003
     19 C         144.6528  139.4057  163.7231 C.3     1  UNL1        0.1598
     20 C         145.2842  141.7192  162.7238 C.3     1  UNL1        0.1742
     21 O         144.8400  140.8848  163.8884 O.3     1  UNL1       -0.3496
@<TRIPOS>BOND
     1    20    21    1
     2    21    19    1
     3    14    19    1
     4    14    15    1
     5    15    16    1
     6    16    17    1
     7    17    18    1
     8    18     1    1
     9     1     2    1
    10     2     3    1
    11     3     4    1
    12     4     7    1
    13     7     8   ar
    14     8     9   ar
    15     9    10   ar
    16    10    11   ar
    17    11    12    1
    18    11    13   ar
    19     4     5   am
    20     5     6    2
    21    18    14    1
    22     5     1   am
    23    13     7   ar
@<TRIPOS>MOLECULE
*****
 21 23 0 0 0
SMALL
GASTEIGER

@<TRIPOS>ATOM
      1 N         138.8549  143.0101  161.4211 N.am    1  UNL1       -0.2035
      2 C         137.7717  143.4965  162.3378 C.3     1  UNL1        0.1350
      3 C         137.5165  142.4296  163.3608 C.3     1  UNL1        0.1229
      4 N         138.4419  141.2839  163.0765 N.am    1  UNL1       -0.2403
      5 C         139.2691  141.6427  161.8777 C.2     1  UNL1        0.3244
      6 O         140.3251  140.7846  161.2463 O.2     1  UNL1       -0.2507
      7 C         138.5255  140.0040  163.8544 C.ar    1  UNL1        0.0562
      8 C         139.0369  138.7576  163.1950 C.ar    1  UNL1        0.0150
      9 C         139.1205  137.4778  163.9729 C.ar    1  UNL1        0.0021
     10 C         138.6927  137.4445  165.4102 C.ar    1  UNL1        0.0115
     11 C         138.1814  138.6909  166.0696 C.ar    1  UNL1        0.0589
     12 CL        137.7537  138.6576  167.5070 Cl      1  UNL1       -0.0822
     13 C         138.0978  139.9707  165.2917 C.ar    1  UNL1        0.0263
     14 C         140.1803  145.0532  160.3194 C.3     1  UNL1        0.1056
     15 C         140.5603  145.4402  158.9209 C.3     1  UNL1        0.0217
     16 C         140.0388  144.3857  157.9903 C.3     1  UNL1        0.0206
     17 C         139.3364  143.3471  158.8136 C.3     1  UNL1        0.0923
     18 N         139.4239  143.7596  160.2530 N.3     1  UNL1       -0.2003
     19 C         140.5004  145.8244  161.5655 C.3     1  UNL1        0.1598
     20 C         140.8291  144.8335  163.9445 C.3     1  UNL1        0.1742
     21 O         141.3932  145.2238  162.6106 O.3     1  UNL1       -0.3496
@<TRIPOS>BOND
     1    20    21    1
     2    21    19    1
     3    14    19    1
     4    14    15    1
     5    15    16    1
     6    16    17    1
     7    17    18    1
     8    18     1    1
     9     1     2    1
    10     2     3    1
    11     3     4    1
    12     4     7    1
    13     7     8   ar
    14     8     9   ar
    15     9    10   ar
    16    10    11   ar
    17    11    12    1
    18    11    13   ar
    19     4     5   am
    20     5     6    2
    21    18    14    1
    22     5     1   am
    23    13     7   ar
@<TRIPOS>MOLECULE
*****
 21 23 0 0 0
SMALL
GASTEIGER

@<TRIPOS>ATOM
      1 N         140.6000  139.8422  163.9403 N.am    1  UNL1       -0.2035
      2 C         142.0420  139.8534  164.3535 C.3     1  UNL1        0.1350
      3 C         142.1099  140.2889  165.7873 C.3     1  UNL1        0.1229
      4 N         140.7100  140.5468  166.2602 N.am    1  UNL1       -0.2403
      5 C         139.7769  140.2708  165.1187 C.2     1  UNL1        0.3244
      6 O         138.2828  140.4005  165.1501 O.2     1  UNL1       -0.2507
      7 C         140.3129  141.0011  167.6335 C.ar    1  UNL1        0.0562
      8 C         139.6127  140.0550  168.5632 C.ar    1  UNL1        0.0150
      9 C         139.2156  140.5093  169.9365 C.ar    1  UNL1        0.0021
     10 C         139.5188  141.9098  170.3801 C.ar    1  UNL1        0.0115
     11 C         140.2191  142.8559  169.4504 C.ar    1  UNL1        0.0589
     12 CL        140.5224  144.2564  169.8940 Cl      1  UNL1       -0.0822
     13 C         140.6162  142.4016  168.0771 C.ar    1  UNL1        0.0263
     14 C         139.8672  140.4028  161.4316 C.3     1  UNL1        0.1056
     15 C         139.3274  139.6060  160.2811 C.3     1  UNL1        0.0217
     16 C         139.2002  138.1788  160.7249 C.3     1  UNL1        0.0206
     17 C         139.6615  138.0936  162.1496 C.3     1  UNL1        0.0923
     18 N         140.0737  139.4681  162.5864 N.3     1  UNL1       -0.2003
     19 C         140.1508  141.8758  161.4279 C.3     1  UNL1        0.1598
     20 C         140.4837  143.5010  163.4273 C.3     1  UNL1        0.1742
     21 O         139.5734  142.7533  162.4987 O.3     1  UNL1       -0.3496
@<TRIPOS>BOND
     1    20    21    1
     2    21    19    1
     3    14    19    1
     4    14    15    1
     5    15    16    1
     6    16    17    1
     7    17    18    1
     8    18     1    1
     9     1     2    1
    10     2     3    1
    11     3     4    1
    12     4     7    1
    13     7     8   ar
    14     8     9   ar
    15     9    10   ar
    16    10    11   ar
    17    11    12    1
    18    11    13   ar
    19     4     5   am
    20     5     6    2
    21    18    14    1
    22     5     1   am
    23    13     7   ar
@<TRIPOS>MOLECULE
*****
 21 23 0 0 0
SMALL
GASTEIGER

@<TRIPOS>ATOM
      1 N         139.3290  139.1396  162.7268 N.am    1  UNL1       -0.2035
      2 C         138.8960  137.8054  163.2583 C.3     1  UNL1        0.1350
      3 C         139.2451  137.7516  164.7161 C.3     1  UNL1        0.1229
      4 N         139.8939  139.0526  165.0856 N.am    1  UNL1       -0.2403
      5 C         139.9458  139.9104  163.8562 C.2     1  UNL1        0.3244
      6 O         140.5145  141.2958  163.7710 O.2     1  UNL1       -0.2507
      7 C         140.4018  139.4296  166.4458 C.ar    1  UNL1        0.0562
      8 C         141.8758  139.4269  166.7233 C.ar    1  UNL1        0.0150
      9 C         142.3836  139.8039  168.0835 C.ar    1  UNL1        0.0021
     10 C         141.4173  140.1837  169.1661 C.ar    1  UNL1        0.0115
     11 C         139.9432  140.1864  168.8886 C.ar    1  UNL1        0.0589
     12 CL        138.9769  140.5661  169.9712 Cl      1  UNL1       -0.0822
     13 C         139.4355  139.8094  167.5284 C.ar    1  UNL1        0.0263
     14 C         138.4363  140.8504  160.8773 C.3     1  UNL1        0.1056
     15 C         138.5338  140.9434  159.3833 C.3     1  UNL1        0.0217
     16 C         139.3305  139.7692  158.8969 C.3     1  UNL1        0.0206
     17 C         139.7253  138.9506  160.0902 C.3     1  UNL1        0.0923
     18 N         139.1727  139.6188  161.3141 N.3     1  UNL1       -0.2003
     19 C         137.7270  141.8191  161.7765 C.3     1  UNL1        0.1598
     20 C         138.0832  144.1645  162.8357 C.3     1  UNL1        0.1742
     21 O         137.9573  143.2932  161.6212 O.3     1  UNL1       -0.3496
@<TRIPOS>BOND
     1    20    21    1
     2    21    19    1
     3    14    19    1
     4    14    15    1
     5    15    16    1
     6    16    17    1
     7    17    18    1
     8    18     1    1
     9     1     2    1
    10     2     3    1
    11     3     4    1
    12     4     7    1
    13     7     8   ar
    14     8     9   ar
    15     9    10   ar
    16    10    11   ar
    17    11    12    1
    18    11    13   ar
    19     4     5   am
    20     5     6    2
    21    18    14    1
    22     5     1   am
    23    13     7   ar
@<TRIPOS>MOLECULE
*****
 21 23 0 0 0
SMALL
GASTEIGER

@<TRIPOS>ATOM
      1 N         139.8088  140.5427  167.4683 N.am    1  UNL1       -0.2035
      2 C         138.6572  139.6182  167.7315 C.3     1  UNL1        0.1350
      3 C         138.3080  138.9345  166.4429 C.3     1  UNL1        0.1229
      4 N         139.2436  139.4364  165.3834 N.am    1  UNL1       -0.2403
      5 C         140.1712  140.4303  166.0171 C.2     1  UNL1        0.3244
      6 O         141.2686  141.1802  165.3218 O.2     1  UNL1       -0.2507
      7 C         139.2505  139.0178  163.9429 C.ar    1  UNL1        0.0562
      8 C         140.3193  138.0960  163.4348 C.ar    1  UNL1        0.0150
      9 C         140.3261  137.6775  161.9945 C.ar    1  UNL1        0.0021
     10 C         139.2643  138.1808  161.0621 C.ar    1  UNL1        0.0115
     11 C         138.1956  139.1025  161.5702 C.ar    1  UNL1        0.0589
     12 CL        137.1337  139.6058  160.6379 Cl      1  UNL1       -0.0822
     13 C         138.1887  139.5210  163.0106 C.ar    1  UNL1        0.0263
     14 C         141.4131  140.9721  169.5628 C.3     1  UNL1        0.1056
     15 C         141.8459  142.1819  170.3369 C.3     1  UNL1        0.0217
     16 C         141.1804  143.3821  169.7314 C.3     1  UNL1        0.0206
     17 C         140.3363  142.9142  168.5832 C.3     1  UNL1        0.0923
     18 N         140.4801  141.4248  168.4790 N.3     1  UNL1       -0.2003
     19 C         141.8385  139.5581  169.8263 C.3     1  UNL1        0.1598
     20 C         143.0261  138.9958  167.5850 C.3     1  UNL1        0.1742
     21 O         143.0049  138.9753  169.0847 O.3     1  UNL1       -0.3496
@<TRIPOS>BOND
     1    20    21    1
     2    21    19    1
     3    14    19    1
     4    14    15    1
     5    15    16    1
     6    16    17    1
     7    17    18    1
     8    18     1    1
     9     1     2    1
    10     2     3    1
    11     3     4    1
    12     4     7    1
    13     7     8   ar
    14     8     9   ar
    15     9    10   ar
    16    10    11   ar
    17    11    12    1
    18    11    13   ar
    19     4     5   am
    20     5     6    2
    21    18    14    1
    22     5     1   am
    23    13     7   ar
