@<TRIPOS>MOLECULE
*****
 33 36 0 0 0
SMALL
GASTEIGER

@<TRIPOS>ATOM
      1 C         142.4896  140.6588  161.9228 C.ar    1  UNL1       -0.0207
      2 C         143.1480  140.4263  163.2503 C.ar    1  UNL1       -0.0042
      3 C         142.3120  140.1370  164.4616 C.ar    1  UNL1       -0.0003
      4 C         140.8176  140.0803  164.3454 C.ar    1  UNL1       -0.0000
      5 C         140.1592  140.3129  163.0179 C.ar    1  UNL1       -0.0003
      6 C         140.9952  140.6022  161.8066 C.ar    1  UNL1       -0.0042
      7 C         139.9816  139.7910  165.5569 C.ar    1  UNL1        0.0001
      8 C         138.6815  139.0570  165.4130 C.ar    1  UNL1        0.0000
      9 C         137.8455  138.7677  166.6245 C.ar    1  UNL1        0.0001
     10 C         138.3097  139.2125  167.9797 C.ar    1  UNL1        0.0032
     11 C         139.6099  139.9467  168.1235 C.ar    1  UNL1        0.0392
     12 C         140.4458  140.2359  166.9121 C.ar    1  UNL1        0.0032
     13 C         140.0741  140.3915  169.4787 C.ar    1  UNL1        0.2068
     14 N         139.5565  139.8932  170.7954 N.ar    1  UNL1       -0.0522
     15 O         140.2999  140.6065  171.8857 O.2     1  UNL1       -0.2963
     16 C         141.2769  141.5457  171.2427 C.ar    1  UNL1        0.4167
     17 O         142.2268  142.4576  171.9612 O.3     1  UNL1       -0.4640
     18 N         141.1374  141.4128  169.7552 N.ar    1  UNL1       -0.1536
     19 H         142.2435  142.4728  172.8979 H       1  UNL1        0.2970
     20 C         143.7161  139.8340  159.7861 C.3     1  UNL1        0.0066
     21 C         143.3256  140.9481  160.7113 C.3     1  UNL1        0.0454
     22 C         143.7710  142.3516  160.4252 C.3     1  UNL1        0.1325
     23 N         145.1707  142.7766  160.7572 N.3     1  UNL1       -0.3148
     24 H         145.6763  141.9913  161.1671 H       1  UNL1        0.1192
     25 H         145.1427  143.5482  161.4238 H       1  UNL1        0.1192
     26 C         142.8168  143.3300  159.8071 C.2     1  UNL1        0.2401
     27 O         142.7315  143.4539  158.3146 O.2     1  UNL1       -0.2734
     28 N         141.9477  144.1846  160.6814 N.am    1  UNL1       -0.2756
     29 C         141.9224  144.1721  162.1811 C.3     1  UNL1        0.0964
     30 C         140.9104  145.1815  162.6361 C.3     1  UNL1        0.0585
     31 C         140.3103  145.8179  161.4176 C.3     1  UNL1        0.1824
     32 F         139.2545  146.8833  161.4086 F       1  UNL1       -0.2354
     33 C         140.9514  145.2018  160.2095 C.3     1  UNL1        0.1286
@<TRIPOS>BOND
     1    21    20    1
     2    21     1    1
     3     1     2   ar
     4     2     3   ar
     5     3     4   ar
     6     4     7    1
     7     7     8   ar
     8     8     9   ar
     9     9    10   ar
    10    10    11   ar
    11    11    13    1
    12    13    14   ar
    13    14    15   ar
    14    15    16   ar
    15    16    17    1
    16    16    18   ar
    17    11    12   ar
    18     4     5   ar
    19     5     6   ar
    20    21    22    1
    21    22    23    1
    22    22    26    1
    23    26    27    2
    24    26    28   am
    25    28    29    1
    26    29    30    1
    27    30    31    1
    28    31    32    1
    29    31    33    1
    30     6     1   ar
    31    33    28    1
    32    12     7   ar
    33    18    13   ar
    34    17    19    1
    35    23    24    1
    36    23    25    1
@<TRIPOS>MOLECULE
*****
 33 36 0 0 0
SMALL
GASTEIGER

@<TRIPOS>ATOM
      1 C         140.1125  142.5881  161.7985 C.ar    1  UNL1       -0.0207
      2 C         139.6242  143.3650  162.9851 C.ar    1  UNL1       -0.0042
      3 C         139.2630  142.6495  164.2529 C.ar    1  UNL1       -0.0003
      4 C         139.3900  141.1571  164.3342 C.ar    1  UNL1       -0.0000
      5 C         139.8782  140.3802  163.1476 C.ar    1  UNL1       -0.0003
      6 C         140.2394  141.0957  161.8797 C.ar    1  UNL1       -0.0042
      7 C         139.0287  140.4415  165.6021 C.ar    1  UNL1        0.0001
      8 C         138.0393  139.3146  165.5715 C.ar    1  UNL1        0.0000
      9 C         137.6780  138.5990  166.8395 C.ar    1  UNL1        0.0001
     10 C         138.3062  139.0106  168.1380 C.ar    1  UNL1        0.0032
     11 C         139.2956  140.1376  168.1685 C.ar    1  UNL1        0.0392
     12 C         139.6568  140.8531  166.9006 C.ar    1  UNL1        0.0032
     13 C         139.9238  140.5492  169.4670 C.ar    1  UNL1        0.2068
     14 N         139.5788  140.0097  170.8234 N.ar    1  UNL1       -0.0522
     15 O         140.4490  140.6995  171.8318 O.2     1  UNL1       -0.2963
     16 C         141.3318  141.6654  171.0986 C.ar    1  UNL1        0.4167
     17 O         142.3589  142.5661  171.7181 O.3     1  UNL1       -0.4640
     18 N         141.0072  141.5725  169.6371 N.ar    1  UNL1       -0.1536
     19 H         142.4931  142.5556  172.6453 H       1  UNL1        0.2970
     20 C         139.5105  143.3252  159.3810 C.3     1  UNL1        0.0066
     21 C         140.4737  143.3036  160.5305 C.3     1  UNL1        0.0454
     22 C         141.7983  143.9975  160.4123 C.3     1  UNL1        0.1325
     23 N         141.8534  145.4902  160.2745 N.3     1  UNL1       -0.3148
     24 H         140.9057  145.8673  160.2799 H       1  UNL1        0.1192
     25 H         142.3113  145.7340  159.3963 H       1  UNL1        0.1192
     26 C         143.0678  143.1988  160.4317 C.2     1  UNL1        0.2401
     27 O         143.6549  142.6921  159.1477 O.2     1  UNL1       -0.2734
     28 N         143.7503  142.9068  161.7352 N.am    1  UNL1       -0.2756
     29 C         143.2843  143.3449  163.0920 C.3     1  UNL1        0.0964
     30 C         144.2646  142.8342  164.1060 C.3     1  UNL1        0.0585
     31 C         145.3364  142.0805  163.3760 C.3     1  UNL1        0.1824
     32 F         146.5186  141.4013  164.0013 F       1  UNL1       -0.2354
     33 C         145.0186  142.1254  161.9107 C.3     1  UNL1        0.1286
@<TRIPOS>BOND
     1    21    20    1
     2    21     1    1
     3     1     2   ar
     4     2     3   ar
     5     3     4   ar
     6     4     7    1
     7     7     8   ar
     8     8     9   ar
     9     9    10   ar
    10    10    11   ar
    11    11    13    1
    12    13    14   ar
    13    14    15   ar
    14    15    16   ar
    15    16    17    1
    16    16    18   ar
    17    11    12   ar
    18     4     5   ar
    19     5     6   ar
    20    21    22    1
    21    22    23    1
    22    22    26    1
    23    26    27    2
    24    26    28   am
    25    28    29    1
    26    29    30    1
    27    30    31    1
    28    31    32    1
    29    31    33    1
    30     6     1   ar
    31    33    28    1
    32    12     7   ar
    33    18    13   ar
    34    17    19    1
    35    23    24    1
    36    23    25    1
@<TRIPOS>MOLECULE
*****
 33 36 0 0 0
SMALL
GASTEIGER

@<TRIPOS>ATOM
      1 C         142.5913  142.4902  161.4534 C.ar    1  UNL1       -0.0207
      2 C         141.6842  141.3181  161.6844 C.ar    1  UNL1       -0.0042
      3 C         141.7792  140.5365  162.9610 C.ar    1  UNL1       -0.0003
      4 C         142.7813  140.9269  164.0067 C.ar    1  UNL1       -0.0000
      5 C         143.6884  142.0990  163.7757 C.ar    1  UNL1       -0.0003
      6 C         143.5934  142.8806  162.4990 C.ar    1  UNL1       -0.0042
      7 C         142.8763  140.1452  165.2834 C.ar    1  UNL1        0.0001
      8 C         143.7670  138.9408  165.3609 C.ar    1  UNL1        0.0000
      9 C         143.8619  138.1590  166.6376 C.ar    1  UNL1        0.0001
     10 C         143.0662  138.5818  167.8368 C.ar    1  UNL1        0.0032
     11 C         142.1755  139.7863  167.7593 C.ar    1  UNL1        0.0392
     12 C         142.0805  140.5679  166.4826 C.ar    1  UNL1        0.0032
     13 C         141.3797  140.2090  168.9585 C.ar    1  UNL1        0.2068
     14 N         140.0180  139.7054  169.3353 N.ar    1  UNL1       -0.0522
     15 O         139.6027  140.3948  170.6011 O.2     1  UNL1       -0.2963
     16 C         140.7077  141.3244  171.0067 C.ar    1  UNL1        0.4167
     17 O         140.7136  142.2129  172.2152 O.3     1  UNL1       -0.4640
     18 N         141.8060  141.2096  169.9915 N.ar    1  UNL1       -0.1536
     19 H         139.9787  142.2180  172.7965 H       1  UNL1        0.2970
     20 C         143.4510  142.9932  159.0538 C.3     1  UNL1        0.0066
     21 C         142.4963  143.2719  160.1766 C.3     1  UNL1        0.0454
     22 C         141.4466  144.3324  160.0228 C.3     1  UNL1        0.1325
     23 N         141.7979  145.6504  159.3986 N.3     1  UNL1       -0.3148
     24 H         142.7845  145.6519  159.1399 H       1  UNL1        0.1192
     25 H         141.6202  146.4009  160.0662 H       1  UNL1        0.1192
     26 C         140.0458  144.0749  160.4933 C.2     1  UNL1        0.2401
     27 O         139.0084  143.5846  159.5271 O.2     1  UNL1       -0.2734
     28 N         139.6824  144.3076  161.9298 N.am    1  UNL1       -0.2756
     29 C         140.6076  144.7937  163.0058 C.3     1  UNL1        0.0964
     30 C         139.8269  144.8816  164.2836 C.3     1  UNL1        0.0585
     31 C         138.4192  144.4499  163.9974 C.3     1  UNL1        0.1824
     32 F         137.2977  144.3844  164.9913 F       1  UNL1       -0.2354
     33 C         138.3299  144.0951  162.5427 C.3     1  UNL1        0.1286
@<TRIPOS>BOND
     1    21    20    1
     2    21     1    1
     3     1     2   ar
     4     2     3   ar
     5     3     4   ar
     6     4     7    1
     7     7     8   ar
     8     8     9   ar
     9     9    10   ar
    10    10    11   ar
    11    11    13    1
    12    13    14   ar
    13    14    15   ar
    14    15    16   ar
    15    16    17    1
    16    16    18   ar
    17    11    12   ar
    18     4     5   ar
    19     5     6   ar
    20    21    22    1
    21    22    23    1
    22    22    26    1
    23    26    27    2
    24    26    28   am
    25    28    29    1
    26    29    30    1
    27    30    31    1
    28    31    32    1
    29    31    33    1
    30     6     1   ar
    31    33    28    1
    32    12     7   ar
    33    18    13   ar
    34    17    19    1
    35    23    24    1
    36    23    25    1
@<TRIPOS>MOLECULE
*****
 33 36 0 0 0
SMALL
GASTEIGER

@<TRIPOS>ATOM
      1 C         139.4829  142.3781  161.6051 C.ar    1  UNL1       -0.0207
      2 C         138.2137  142.6228  162.3662 C.ar    1  UNL1       -0.0042
      3 C         138.0000  141.9676  163.6985 C.ar    1  UNL1       -0.0003
      4 C         139.0555  141.0677  164.2696 C.ar    1  UNL1       -0.0000
      5 C         140.3246  140.8230  163.5085 C.ar    1  UNL1       -0.0003
      6 C         140.5383  141.4782  162.1762 C.ar    1  UNL1       -0.0042
      7 C         138.8418  140.4125  165.6020 C.ar    1  UNL1        0.0001
      8 C         137.9324  139.2251  165.7166 C.ar    1  UNL1        0.0000
      9 C         137.7186  138.5699  167.0489 C.ar    1  UNL1        0.0001
     10 C         138.4143  139.1021  168.2666 C.ar    1  UNL1        0.0032
     11 C         139.3237  140.2895  168.1520 C.ar    1  UNL1        0.0392
     12 C         139.5374  140.9447  166.8197 C.ar    1  UNL1        0.0032
     13 C         140.0194  140.8217  169.3697 C.ar    1  UNL1        0.2068
     14 N         139.6691  140.5065  170.7937 N.ar    1  UNL1       -0.0522
     15 O         140.6208  141.2525  171.6813 O.2     1  UNL1       -0.2963
     16 C         141.5593  142.0289  170.8058 C.ar    1  UNL1        0.4167
     17 O         142.6737  142.9158  171.2763 O.3     1  UNL1       -0.4640
     18 N         141.1876  141.7626  169.3772 N.ar    1  UNL1       -0.1536
     19 H         142.8323  143.0223  172.1936 H       1  UNL1        0.2970
     20 C         139.1536  142.3964  159.0280 C.3     1  UNL1        0.0066
     21 C         139.6966  143.0333  160.2727 C.3     1  UNL1        0.0454
     22 C         140.4534  144.3254  160.1852 C.3     1  UNL1        0.1325
     23 N         140.9424  144.8197  158.8560 N.3     1  UNL1       -0.3148
     24 H         140.6739  144.1581  158.1275 H       1  UNL1        0.1192
     25 H         141.9584  144.9069  158.8785 H       1  UNL1        0.1192
     26 C         140.7212  145.1233  161.4268 C.2     1  UNL1        0.2401
     27 O         139.7425  146.1694  161.8718 O.2     1  UNL1       -0.2734
     28 N         141.9678  144.8753  162.2234 N.am    1  UNL1       -0.2756
     29 C         143.0325  143.8682  161.9039 C.3     1  UNL1        0.0964
     30 C         144.0912  143.9612  162.9624 C.3     1  UNL1        0.0585
     31 C         143.6808  145.0258  163.9362 C.3     1  UNL1        0.1824
     32 F         144.4480  145.4509  165.1530 F       1  UNL1       -0.2354
     33 C         142.3684  145.5907  163.4794 C.3     1  UNL1        0.1286
@<TRIPOS>BOND
     1    21    20    1
     2    21     1    1
     3     1     2   ar
     4     2     3   ar
     5     3     4   ar
     6     4     7    1
     7     7     8   ar
     8     8     9   ar
     9     9    10   ar
    10    10    11   ar
    11    11    13    1
    12    13    14   ar
    13    14    15   ar
    14    15    16   ar
    15    16    17    1
    16    16    18   ar
    17    11    12   ar
    18     4     5   ar
    19     5     6   ar
    20    21    22    1
    21    22    23    1
    22    22    26    1
    23    26    27    2
    24    26    28   am
    25    28    29    1
    26    29    30    1
    27    30    31    1
    28    31    32    1
    29    31    33    1
    30     6     1   ar
    31    33    28    1
    32    12     7   ar
    33    18    13   ar
    34    17    19    1
    35    23    24    1
    36    23    25    1
@<TRIPOS>MOLECULE
*****
 33 36 0 0 0
SMALL
GASTEIGER

@<TRIPOS>ATOM
      1 C         141.8739  140.4111  161.6500 C.ar    1  UNL1       -0.0207
      2 C         140.6262  141.1811  161.9667 C.ar    1  UNL1       -0.0042
      3 C         139.8958  140.9295  163.2524 C.ar    1  UNL1       -0.0003
      4 C         140.4129  139.9079  164.2214 C.ar    1  UNL1       -0.0000
      5 C         141.6606  139.1379  163.9046 C.ar    1  UNL1       -0.0003
      6 C         142.3910  139.3895  162.6189 C.ar    1  UNL1       -0.0042
      7 C         139.6824  139.6563  165.5071 C.ar    1  UNL1        0.0001
      8 C         138.3943  138.8877  165.4999 C.ar    1  UNL1        0.0000
      9 C         137.6638  138.6362  166.7856 C.ar    1  UNL1        0.0001
     10 C         138.2214  139.1532  168.0786 C.ar    1  UNL1        0.0032
     11 C         139.5095  139.9219  168.0858 C.ar    1  UNL1        0.0392
     12 C         140.2400  140.1734  166.8001 C.ar    1  UNL1        0.0032
     13 C         140.0671  140.4390  169.3787 C.ar    1  UNL1        0.2068
     14 N         139.6370  140.0220  170.7539 N.ar    1  UNL1       -0.0522
     15 O         140.4567  140.7891  171.7486 O.2     1  UNL1       -0.2963
     16 C         141.3936  141.6803  170.9882 C.ar    1  UNL1        0.4167
     17 O         142.3953  142.6224  171.5873 O.3     1  UNL1       -0.4640
     18 N         141.1527  141.4639  169.5236 N.ar    1  UNL1       -0.1536
     19 H         142.4755  142.6911  172.5183 H       1  UNL1        0.2970
     20 C         142.4876  139.6860  159.2318 C.3     1  UNL1        0.0066
     21 C         142.6044  140.6627  160.3642 C.3     1  UNL1        0.0454
     22 C         143.4517  141.8909  160.2110 C.3     1  UNL1        0.1325
     23 N         144.4003  142.0083  159.0549 N.3     1  UNL1       -0.3148
     24 H         144.3391  141.1690  158.4784 H       1  UNL1        0.1192
     25 H         145.3526  142.1112  159.4055 H       1  UNL1        0.1192
     26 C         143.3505  143.0018  161.2138 C.2     1  UNL1        0.2401
     27 O         142.5226  144.2148  160.9084 O.2     1  UNL1       -0.2734
     28 N         144.0772  142.8998  162.5220 N.am    1  UNL1       -0.2756
     29 C         144.9383  141.7544  162.9653 C.3     1  UNL1        0.0964
     30 C         145.4636  142.0719  164.3340 C.3     1  UNL1        0.0585
     31 C         144.9272  143.4136  164.7366 C.3     1  UNL1        0.1824
     32 F         145.1997  144.1197  166.0316 F       1  UNL1       -0.2354
     33 C         144.0703  143.9252  163.6168 C.3     1  UNL1        0.1286
@<TRIPOS>BOND
     1    21    20    1
     2    21     1    1
     3     1     2   ar
     4     2     3   ar
     5     3     4   ar
     6     4     7    1
     7     7     8   ar
     8     8     9   ar
     9     9    10   ar
    10    10    11   ar
    11    11    13    1
    12    13    14   ar
    13    14    15   ar
    14    15    16   ar
    15    16    17    1
    16    16    18   ar
    17    11    12   ar
    18     4     5   ar
    19     5     6   ar
    20    21    22    1
    21    22    23    1
    22    22    26    1
    23    26    27    2
    24    26    28   am
    25    28    29    1
    26    29    30    1
    27    30    31    1
    28    31    32    1
    29    31    33    1
    30     6     1   ar
    31    33    28    1
    32    12     7   ar
    33    18    13   ar
    34    17    19    1
    35    23    24    1
    36    23    25    1
@<TRIPOS>MOLECULE
*****
 33 36 0 0 0
SMALL
GASTEIGER

@<TRIPOS>ATOM
      1 C         141.0690  143.1176  161.8764 C.ar    1  UNL1       -0.0207
      2 C         139.8884  142.2053  161.7220 C.ar    1  UNL1       -0.0042
      3 C         139.3749  141.4369  162.9034 C.ar    1  UNL1       -0.0003
      4 C         140.0419  141.5809  164.2392 C.ar    1  UNL1       -0.0000
      5 C         141.2224  142.4933  164.3936 C.ar    1  UNL1       -0.0003
      6 C         141.7359  143.2617  163.2122 C.ar    1  UNL1       -0.0042
      7 C         139.5282  140.8125  165.4207 C.ar    1  UNL1        0.0001
      8 C         138.4966  139.7409  165.2275 C.ar    1  UNL1        0.0000
      9 C         137.9830  138.9725  166.4090 C.ar    1  UNL1        0.0001
     10 C         138.5011  139.2758  167.7837 C.ar    1  UNL1        0.0032
     11 C         139.5328  140.3474  167.9768 C.ar    1  UNL1        0.0392
     12 C         140.0463  141.1158  166.7954 C.ar    1  UNL1        0.0032
     13 C         140.0508  140.6507  169.3515 C.ar    1  UNL1        0.2068
     14 N         139.5747  140.0281  170.6304 N.ar    1  UNL1       -0.0522
     15 O         140.3656  140.6224  171.7579 O.2     1  UNL1       -0.2963
     16 C         141.3306  141.6123  171.1758 C.ar    1  UNL1        0.4167
     17 O         142.3169  142.4396  171.9457 O.3     1  UNL1       -0.4640
     18 N         141.1360  141.6298  169.6886 N.ar    1  UNL1       -0.1536
     19 H         142.3674  142.3611  172.8781 H       1  UNL1        0.2970
     20 C         140.9762  145.2116  160.3412 C.3     1  UNL1        0.0066
     21 C         141.5826  143.8861  160.6949 C.3     1  UNL1        0.0454
     22 C         142.7025  143.3288  159.8671 C.3     1  UNL1        0.1325
     23 N         143.0402  143.9523  158.5452 N.3     1  UNL1       -0.3148
     24 H         142.4127  144.7368  158.3691 H       1  UNL1        0.1192
     25 H         142.9334  143.2587  157.8050 H       1  UNL1        0.1192
     26 C         143.4848  142.1482  160.3612 C.2     1  UNL1        0.2401
     27 O         144.7204  142.3588  161.1853 O.2     1  UNL1       -0.2734
     28 N         143.0315  140.7569  160.0313 N.am    1  UNL1       -0.2756
     29 C         141.8225  140.3922  159.2217 C.3     1  UNL1        0.0964
     30 C         141.7514  138.8959  159.1431 C.3     1  UNL1        0.0585
     31 C         142.9164  138.3359  159.9042 C.3     1  UNL1        0.1824
     32 F         143.2345  136.8811  160.0846 F       1  UNL1       -0.2354
     33 C         143.7075  139.4860  160.4531 C.3     1  UNL1        0.1286
@<TRIPOS>BOND
     1    21    20    1
     2    21     1    1
     3     1     2   ar
     4     2     3   ar
     5     3     4   ar
     6     4     7    1
     7     7     8   ar
     8     8     9   ar
     9     9    10   ar
    10    10    11   ar
    11    11    13    1
    12    13    14   ar
    13    14    15   ar
    14    15    16   ar
    15    16    17    1
    16    16    18   ar
    17    11    12   ar
    18     4     5   ar
    19     5     6   ar
    20    21    22    1
    21    22    23    1
    22    22    26    1
    23    26    27    2
    24    26    28   am
    25    28    29    1
    26    29    30    1
    27    30    31    1
    28    31    32    1
    29    31    33    1
    30     6     1   ar
    31    33    28    1
    32    12     7   ar
    33    18    13   ar
    34    17    19    1
    35    23    24    1
    36    23    25    1
@<TRIPOS>MOLECULE
*****
 33 36 0 0 0
SMALL
GASTEIGER

@<TRIPOS>ATOM
      1 C         141.3870  142.0682  161.8077 C.ar    1  UNL1       -0.0207
      2 C         142.2219  141.8854  163.0403 C.ar    1  UNL1       -0.0042
      3 C         141.6100  141.3065  164.2815 C.ar    1  UNL1       -0.0003
      4 C         140.1632  140.9105  164.2899 C.ar    1  UNL1       -0.0000
      5 C         139.3284  141.0933  163.0572 C.ar    1  UNL1       -0.0003
      6 C         139.9403  141.6722  161.8161 C.ar    1  UNL1       -0.0042
      7 C         139.5513  140.3316  165.5311 C.ar    1  UNL1        0.0001
      8 C         138.4056  139.3694  165.4240 C.ar    1  UNL1        0.0000
      9 C         137.7937  138.7905  166.6652 C.ar    1  UNL1        0.0001
     10 C         138.3276  139.1738  168.0135 C.ar    1  UNL1        0.0032
     11 C         139.4734  140.1361  168.1206 C.ar    1  UNL1        0.0392
     12 C         140.0852  140.7149  166.8795 C.ar    1  UNL1        0.0032
     13 C         140.0072  140.5194  169.4690 C.ar    1  UNL1        0.2068
     14 N         139.5546  139.9643  170.7869 N.ar    1  UNL1       -0.0522
     15 O         140.3551  140.6270  171.8686 O.2     1  UNL1       -0.2963
     16 C         141.3025  141.5917  171.2192 C.ar    1  UNL1        0.4167
     17 O         142.2913  142.4689  171.9283 O.3     1  UNL1       -0.4640
     18 N         141.0875  141.5252  169.7362 N.ar    1  UNL1       -0.1536
     19 H         142.3553  142.4425  172.8627 H       1  UNL1        0.2970
     20 C         142.8196  141.7788  159.6596 C.3     1  UNL1        0.0066
     21 C         141.9989  142.6471  160.5664 C.3     1  UNL1        0.0454
     22 C         141.7901  144.0944  160.2321 C.3     1  UNL1        0.1325
     23 N         141.8225  145.1275  161.3192 N.3     1  UNL1       -0.3148
     24 H         141.9965  144.6727  162.2155 H       1  UNL1        0.1192
     25 H         140.9265  145.6138  161.3530 H       1  UNL1        0.1192
     26 C         141.5488  144.5086  158.8108 C.2     1  UNL1        0.2401
     27 O         142.5136  145.4291  158.1237 O.2     1  UNL1       -0.2734
     28 N         140.3428  144.0024  158.0765 N.am    1  UNL1       -0.2756
     29 C         139.2959  143.0814  158.6296 C.3     1  UNL1        0.0964
     30 C         138.2780  142.8380  157.5551 C.3     1  UNL1        0.0585
     31 C         138.6957  143.6086  156.3378 C.3     1  UNL1        0.1824
     32 F         137.9656  143.6520  155.0283 F       1  UNL1       -0.2354
     33 C         139.9718  144.3282  156.6601 C.3     1  UNL1        0.1286
@<TRIPOS>BOND
     1    21    20    1
     2    21     1    1
     3     1     2   ar
     4     2     3   ar
     5     3     4   ar
     6     4     7    1
     7     7     8   ar
     8     8     9   ar
     9     9    10   ar
    10    10    11   ar
    11    11    13    1
    12    13    14   ar
    13    14    15   ar
    14    15    16   ar
    15    16    17    1
    16    16    18   ar
    17    11    12   ar
    18     4     5   ar
    19     5     6   ar
    20    21    22    1
    21    22    23    1
    22    22    26    1
    23    26    27    2
    24    26    28   am
    25    28    29    1
    26    29    30    1
    27    30    31    1
    28    31    32    1
    29    31    33    1
    30     6     1   ar
    31    33    28    1
    32    12     7   ar
    33    18    13   ar
    34    17    19    1
    35    23    24    1
    36    23    25    1
@<TRIPOS>MOLECULE
*****
 33 36 0 0 0
SMALL
GASTEIGER

@<TRIPOS>ATOM
      1 C         138.5947  139.1876  164.9967 C.ar    1  UNL1       -0.0207
      2 C         138.0441  140.3740  164.2625 C.ar    1  UNL1       -0.0042
      3 C         138.1626  140.4531  162.7693 C.ar    1  UNL1       -0.0003
      4 C         138.8317  139.3458  162.0103 C.ar    1  UNL1       -0.0000
      5 C         139.3823  138.1593  162.7445 C.ar    1  UNL1       -0.0003
      6 C         139.2638  138.0802  164.2377 C.ar    1  UNL1       -0.0042
      7 C         138.9502  139.4249  160.5171 C.ar    1  UNL1        0.0001
      8 C         138.0051  140.2875  159.7344 C.ar    1  UNL1        0.0000
      9 C         138.1235  140.3667  158.2411 C.ar    1  UNL1        0.0001
     10 C         139.1872  139.5832  157.5306 C.ar    1  UNL1        0.0032
     11 C         140.1324  138.7206  158.3134 C.ar    1  UNL1        0.0392
     12 C         140.0138  138.6415  159.8066 C.ar    1  UNL1        0.0032
     13 C         141.1960  137.9371  157.6029 C.ar    1  UNL1        0.2068
     14 N         142.6746  138.0534  157.8267 N.ar    1  UNL1       -0.0522
     15 O         143.3603  137.0880  156.9060 O.2     1  UNL1       -0.2963
     16 C         142.3054  136.3750  156.1130 C.ar    1  UNL1        0.4167
     17 O         142.5458  135.3220  155.0721 O.3     1  UNL1       -0.4640
     18 N         140.9678  136.8998  156.5437 N.ar    1  UNL1       -0.1536
     19 H         143.4208  135.0561  154.8681 H       1  UNL1        0.2970
     20 C         137.4309  138.2321  167.1140 C.3     1  UNL1        0.0066
     21 C         138.4762  139.1084  166.4900 C.3     1  UNL1        0.0454
     22 C         139.4031  139.9055  167.3592 C.3     1  UNL1        0.1325
     23 N         139.3555  139.7466  168.8500 N.3     1  UNL1       -0.3148
     24 H         138.6409  139.0616  169.0963 H       1  UNL1        0.1192
     25 H         139.1296  140.6433  169.2805 H       1  UNL1        0.1192
     26 C         140.3775  140.8616  166.7376 C.2     1  UNL1        0.2401
     27 O         140.0480  142.3229  166.6587 O.2     1  UNL1       -0.2734
     28 N         141.6814  140.3565  166.1948 N.am    1  UNL1       -0.2756
     29 C         142.1466  138.9305  166.2029 C.3     1  UNL1        0.0964
     30 C         143.5018  138.8813  165.5618 C.3     1  UNL1        0.0585
     31 C         143.8742  140.2769  165.1574 C.3     1  UNL1        0.1824
     32 F         145.1479  140.6886  164.4806 F       1  UNL1       -0.2354
     33 C         142.7491  141.1886  165.5486 C.3     1  UNL1        0.1286
@<TRIPOS>BOND
     1    21    20    1
     2    21     1    1
     3     1     2   ar
     4     2     3   ar
     5     3     4   ar
     6     4     7    1
     7     7     8   ar
     8     8     9   ar
     9     9    10   ar
    10    10    11   ar
    11    11    13    1
    12    13    14   ar
    13    14    15   ar
    14    15    16   ar
    15    16    17    1
    16    16    18   ar
    17    11    12   ar
    18     4     5   ar
    19     5     6   ar
    20    21    22    1
    21    22    23    1
    22    22    26    1
    23    26    27    2
    24    26    28   am
    25    28    29    1
    26    29    30    1
    27    30    31    1
    28    31    32    1
    29    31    33    1
    30     6     1   ar
    31    33    28    1
    32    12     7   ar
    33    18    13   ar
    34    17    19    1
    35    23    24    1
    36    23    25    1
@<TRIPOS>MOLECULE
*****
 33 36 0 0 0
SMALL
GASTEIGER

@<TRIPOS>ATOM
      1 C         141.6829  141.8628  160.9909 C.ar    1  UNL1       -0.0207
      2 C         142.4245  142.7019  161.9888 C.ar    1  UNL1       -0.0042
      3 C         142.7090  142.1616  163.3589 C.ar    1  UNL1       -0.0003
      4 C         142.2520  140.7822  163.7310 C.ar    1  UNL1       -0.0000
      5 C         141.5105  139.9431  162.7330 C.ar    1  UNL1       -0.0003
      6 C         141.2259  140.4834  161.3630 C.ar    1  UNL1       -0.0042
      7 C         142.5366  140.2419  165.1011 C.ar    1  UNL1        0.0001
      8 C         142.9633  138.8139  165.2705 C.ar    1  UNL1        0.0000
      9 C         143.2479  138.2736  166.6406 C.ar    1  UNL1        0.0001
     10 C         143.1057  139.1614  167.8413 C.ar    1  UNL1        0.0032
     11 C         142.6790  140.5895  167.6719 C.ar    1  UNL1        0.0392
     12 C         142.3945  141.1297  166.3018 C.ar    1  UNL1        0.0032
     13 C         142.5369  141.4773  168.8725 C.ar    1  UNL1        0.2068
     14 N         141.3649  141.5143  169.8079 N.ar    1  UNL1       -0.0522
     15 O         141.6454  142.5438  170.8622 O.2     1  UNL1       -0.2963
     16 C         142.9909  143.1431  170.5783 C.ar    1  UNL1        0.4167
     17 O         143.6668  144.2136  171.3828 O.3     1  UNL1       -0.4640
     18 N         143.5418  142.4839  169.3487 N.ar    1  UNL1       -0.1536
     19 H         143.2438  144.5679  172.1401 H       1  UNL1        0.2970
     20 C         142.1890  141.9153  158.4431 C.3     1  UNL1        0.0066
     21 C         141.3984  142.4030  159.6207 C.3     1  UNL1        0.0454
     22 C         140.3231  143.4311  159.4284 C.3     1  UNL1        0.1325
     23 N         139.5526  143.4788  158.1422 N.3     1  UNL1       -0.3148
     24 H         139.8887  142.7463  157.5171 H       1  UNL1        0.1192
     25 H         139.6837  144.3890  157.7009 H       1  UNL1        0.1192
     26 C         140.0184  144.4113  160.5220 C.2     1  UNL1        0.2401
     27 O         140.6339  145.7791  160.4963 O.2     1  UNL1       -0.2734
     28 N         139.0982  144.0240  161.6415 N.am    1  UNL1       -0.2756
     29 C         138.4122  142.6996  161.8008 C.3     1  UNL1        0.0964
     30 C         137.5925  142.7500  163.0560 C.3     1  UNL1        0.0585
     31 C         137.7719  144.1056  163.6725 C.3     1  UNL1        0.1824
     32 F         137.1330  144.5891  164.9406 F       1  UNL1       -0.2354
     33 C         138.7025  144.8929  162.7983 C.3     1  UNL1        0.1286
@<TRIPOS>BOND
     1    21    20    1
     2    21     1    1
     3     1     2   ar
     4     2     3   ar
     5     3     4   ar
     6     4     7    1
     7     7     8   ar
     8     8     9   ar
     9     9    10   ar
    10    10    11   ar
    11    11    13    1
    12    13    14   ar
    13    14    15   ar
    14    15    16   ar
    15    16    17    1
    16    16    18   ar
    17    11    12   ar
    18     4     5   ar
    19     5     6   ar
    20    21    22    1
    21    22    23    1
    22    22    26    1
    23    26    27    2
    24    26    28   am
    25    28    29    1
    26    29    30    1
    27    30    31    1
    28    31    32    1
    29    31    33    1
    30     6     1   ar
    31    33    28    1
    32    12     7   ar
    33    18    13   ar
    34    17    19    1
    35    23    24    1
    36    23    25    1
