@<TRIPOS>MOLECULE
*****
 36 41 0 0 0
SMALL
GASTEIGER

@<TRIPOS>ATOM
      1 C         141.6637  145.4716  158.9286 C.3     1  UNL1        0.0730
      2 C         140.7929  142.5719  165.7050 C.ar    1  UNL1        0.0532
      3 C         139.6806  143.5714  165.8238 C.ar    1  UNL1        0.0043
      4 C         139.3755  144.4933  164.6805 C.ar    1  UNL1       -0.0044
      5 C         140.1827  144.4158  163.4185 C.ar    1  UNL1       -0.0247
      6 C         141.2949  143.4164  163.2999 C.ar    1  UNL1       -0.0245
      7 C         141.6000  142.4945  164.4430 C.ar    1  UNL1        0.0001
      8 C         142.2150  143.1744  162.1402 C.3     1  UNL1        0.0433
      9 C         142.2501  143.8722  160.8127 C.3     1  UNL1        0.0768
     10 N         141.3738  144.9841  160.3173 N.3     1  UNL1       -0.2720
     11 C         140.2459  145.6730  161.0267 C.3     1  UNL1        0.0768
     12 C         139.7158  145.4201  162.4069 C.3     1  UNL1        0.0433
     13 C         140.5584  140.1074  170.3689 C.3     1  UNL1        0.0742
     14 C         140.9901  140.5173  168.9920 C.ar    1  UNL1        0.1442
     15 C         142.1443  139.9456  168.2233 C.ar    1  UNL1        0.1349
     16 N         142.2110  140.6458  166.8983 N.ar    1  UNL1       -0.2070
     17 C         141.0979  141.6501  166.8483 C.ar    1  UNL1        0.2293
     18 O         140.3434  141.5706  168.1423 O.2     1  UNL1       -0.4389
     19 C         142.1840  144.5196  157.8927 C.3     1  UNL1        0.0294
     20 C         141.2386  143.8794  156.9200 C.3     1  UNL1        0.0666
     21 S         140.6304  142.5445  157.2331 S.3     1  UNL1       -0.0756
     22 C         139.8147  142.3657  158.4792 C.ar    1  UNL1        0.1933
     23 N         138.6180  143.1793  158.8739 N.ar    1  UNL1       -0.1221
     24 N         138.1161  142.6583  160.1879 N.ar    1  UNL1       -0.1267
     25 C         139.0028  141.5227  160.6054 C.ar    1  UNL1        0.1846
     26 N         140.0526  141.3419  159.5493 N.ar    1  UNL1       -0.2872
     27 C         141.1479  140.3171  159.5613 C.3     1  UNL1        0.1340
     28 C         138.8641  140.7106  161.8588 C.2     1  UNL1        0.1167
     29 C         138.4039  141.2195  163.1927 C.2     1  UNL1        0.0234
     30 C         138.4165  140.0704  164.1568 C.2     1  UNL1        0.0155
     31 C         138.0624  139.9765  165.6113 C.2     1  UNL1        0.0009
     32 C         138.1762  138.6637  166.3278 C.2     1  UNL1       -0.0041
     33 C         138.6443  137.4446  165.5898 C.2     1  UNL1       -0.0198
     34 C         138.9985  137.5384  164.1352 C.3     1  UNL1        0.0717
     35 C         138.8846  138.8513  163.4187 C.2     1  UNL1        0.0635
     36 N         139.1612  139.2470  161.9985 N.2     1  UNL1       -0.2462
@<TRIPOS>BOND
     1    13    14    1
     2    14    15   ar
     3    15    16   ar
     4    16    17   ar
     5    17     2    1
     6     2     3   ar
     7     3     4   ar
     8     4     5   ar
     9     5     6   ar
    10     6     7   ar
    11     6     8    1
    12     8     9    1
    13     9    10    1
    14    10     1    1
    15     1    19    1
    16    19    20    1
    17    20    21    1
    18    21    22    1
    19    22    23   ar
    20    23    24   ar
    21    24    25   ar
    22    25    28    1
    23    28    29    2
    24    29    30    1
    25    30    31    2
    26    31    32    1
    27    32    33    2
    28    33    34    1
    29    34    35    1
    30    35    36    2
    31    25    26   ar
    32    26    27    1
    33    10    11    1
    34    11    12    1
    35    17    18   ar
    36    18    14   ar
    37     7     2   ar
    38    26    22   ar
    39    12     5    1
    40    36    28    1
    41    35    30    1
@<TRIPOS>MOLECULE
*****
 36 41 0 0 0
SMALL
GASTEIGER

@<TRIPOS>ATOM
      1 C         140.2745  140.3928  158.9396 C.3     1  UNL1        0.0730
      2 C         139.4297  139.7450  166.2849 C.ar    1  UNL1        0.0532
      3 C         139.3504  138.2758  165.9931 C.ar    1  UNL1        0.0043
      4 C         139.4664  137.7844  164.5805 C.ar    1  UNL1       -0.0044
      5 C         139.6616  138.7623  163.4599 C.ar    1  UNL1       -0.0247
      6 C         139.7409  140.2314  163.7518 C.ar    1  UNL1       -0.0245
      7 C         139.6249  140.7228  165.1642 C.ar    1  UNL1        0.0001
      8 C         139.9307  141.3670  162.7903 C.3     1  UNL1        0.0433
      9 C         140.0883  141.3138  161.2995 C.3     1  UNL1        0.0768
     10 N         140.0948  140.1120  160.4021 N.3     1  UNL1       -0.2720
     11 C         139.9455  138.6665  160.7737 C.3     1  UNL1        0.0768
     12 C         139.7527  138.0657  162.1345 C.3     1  UNL1        0.0433
     13 C         139.8027  142.7715  170.5956 C.3     1  UNL1        0.0742
     14 C         139.4851  141.6275  169.6787 C.ar    1  UNL1        0.1442
     15 C         138.7854  140.3577  170.0631 C.ar    1  UNL1        0.1349
     16 N         138.6794  139.4978  168.8385 N.ar    1  UNL1       -0.2070
     17 C         139.3137  140.2364  167.6974 C.ar    1  UNL1        0.2293
     18 O         139.8116  141.5526  168.2167 O.2     1  UNL1       -0.4389
     19 C         141.2287  139.5667  158.1289 C.3     1  UNL1        0.0294
     20 C         142.5191  140.1640  157.6513 C.3     1  UNL1        0.0666
     21 S         143.7397  140.1058  158.5211 S.3     1  UNL1       -0.0756
     22 C         143.6431  139.5554  159.9132 C.ar    1  UNL1        0.1933
     23 N         143.6460  138.1034  160.2894 N.ar    1  UNL1       -0.1221
     24 N         143.5313  138.0110  161.7821 N.ar    1  UNL1       -0.1267
     25 C         143.4576  139.4060  162.3285 C.ar    1  UNL1        0.1846
     26 N         143.5267  140.3606  161.1734 N.ar    1  UNL1       -0.2872
     27 C         143.4864  141.8573  161.2630 C.3     1  UNL1        0.1340
     28 C         143.3361  139.7807  163.7759 C.2     1  UNL1        0.1167
     29 C         143.1153  138.8321  164.9167 C.2     1  UNL1        0.0234
     30 C         143.0568  139.6350  166.1824 C.2     1  UNL1        0.0155
     31 C         142.8593  139.2371  167.6151 C.2     1  UNL1        0.0009
     32 C         142.8464  140.2840  168.6893 C.2     1  UNL1       -0.0041
     33 C         143.0310  141.7288  168.3307 C.2     1  UNL1       -0.0198
     34 C         143.2285  142.1267  166.8980 C.3     1  UNL1        0.0717
     35 C         143.2415  141.0797  165.8239 C.2     1  UNL1        0.0635
     36 N         143.4140  141.1698  164.3365 N.2     1  UNL1       -0.2462
@<TRIPOS>BOND
     1    13    14    1
     2    14    15   ar
     3    15    16   ar
     4    16    17   ar
     5    17     2    1
     6     2     3   ar
     7     3     4   ar
     8     4     5   ar
     9     5     6   ar
    10     6     7   ar
    11     6     8    1
    12     8     9    1
    13     9    10    1
    14    10     1    1
    15     1    19    1
    16    19    20    1
    17    20    21    1
    18    21    22    1
    19    22    23   ar
    20    23    24   ar
    21    24    25   ar
    22    25    28    1
    23    28    29    2
    24    29    30    1
    25    30    31    2
    26    31    32    1
    27    32    33    2
    28    33    34    1
    29    34    35    1
    30    35    36    2
    31    25    26   ar
    32    26    27    1
    33    10    11    1
    34    11    12    1
    35    17    18   ar
    36    18    14   ar
    37     7     2   ar
    38    26    22   ar
    39    12     5    1
    40    36    28    1
    41    35    30    1
@<TRIPOS>MOLECULE
*****
 36 41 0 0 0
SMALL
GASTEIGER

@<TRIPOS>ATOM
      1 C         144.6111  142.5617  159.5480 C.3     1  UNL1        0.0730
      2 C         142.8336  140.0351  166.2966 C.ar    1  UNL1        0.0532
      3 C         142.6189  138.7319  165.5854 C.ar    1  UNL1        0.0043
      4 C         142.8432  138.6395  164.1052 C.ar    1  UNL1       -0.0044
      5 C         143.2822  139.8502  163.3360 C.ar    1  UNL1       -0.0247
      6 C         143.4967  141.1533  164.0472 C.ar    1  UNL1       -0.0245
      7 C         143.2725  141.2458  165.5274 C.ar    1  UNL1        0.0001
      8 C         143.9299  142.4707  163.4752 C.3     1  UNL1        0.0433
      9 C         144.2555  142.8101  162.0508 C.3     1  UNL1        0.0768
     10 N         144.2282  141.9161  160.8467 N.3     1  UNL1       -0.2720
     11 C         143.8688  140.4618  160.7694 C.3     1  UNL1        0.0768
     12 C         143.4477  139.5424  161.8773 C.3     1  UNL1        0.0433
     13 C         141.5227  141.8667  171.0723 C.3     1  UNL1        0.0742
     14 C         142.0067  140.9695  169.9719 C.ar    1  UNL1        0.1442
     15 C         142.5214  139.5703  170.1374 C.ar    1  UNL1        0.1349
     16 N         142.8938  139.0499  168.7806 N.ar    1  UNL1       -0.2070
     17 C         142.6092  140.1275  167.7768 C.ar    1  UNL1        0.2293
     18 O         142.0610  141.3139  168.5131 O.2     1  UNL1       -0.4389
     19 C         143.6343  142.5947  158.4101 C.3     1  UNL1        0.0294
     20 C         142.9197  143.8695  158.0718 C.3     1  UNL1        0.0666
     21 S         141.5280  144.1063  158.5786 S.3     1  UNL1       -0.0756
     22 C         141.1993  143.8434  160.0184 C.ar    1  UNL1        0.1933
     23 N         141.2854  144.8378  161.1382 N.ar    1  UNL1       -0.1221
     24 N         140.8661  144.1490  162.4030 N.ar    1  UNL1       -0.1267
     25 C         140.5208  142.7290  162.0649 C.ar    1  UNL1        0.1846
     26 N         140.7267  142.5401  160.5911 N.ar    1  UNL1       -0.2872
     27 C         140.4999  141.2708  159.8248 C.3     1  UNL1        0.1340
     28 C         140.0519  141.6817  163.0310 C.2     1  UNL1        0.1167
     29 C         139.8206  141.8776  164.5001 C.2     1  UNL1        0.0234
     30 C         139.3578  140.5716  165.0747 C.2     1  UNL1        0.0155
     31 C         138.9791  140.1661  166.4683 C.2     1  UNL1        0.0009
     32 C         138.5456  138.7577  166.7479 C.2     1  UNL1       -0.0041
     33 C         138.4909  137.7545  165.6340 C.2     1  UNL1       -0.0198
     34 C         138.8695  138.1600  164.2404 C.3     1  UNL1        0.0717
     35 C         139.3030  139.5685  163.9607 C.2     1  UNL1        0.0635
     36 N         139.7320  140.2547  162.6977 N.2     1  UNL1       -0.2462
@<TRIPOS>BOND
     1    13    14    1
     2    14    15   ar
     3    15    16   ar
     4    16    17   ar
     5    17     2    1
     6     2     3   ar
     7     3     4   ar
     8     4     5   ar
     9     5     6   ar
    10     6     7   ar
    11     6     8    1
    12     8     9    1
    13     9    10    1
    14    10     1    1
    15     1    19    1
    16    19    20    1
    17    20    21    1
    18    21    22    1
    19    22    23   ar
    20    23    24   ar
    21    24    25   ar
    22    25    28    1
    23    28    29    2
    24    29    30    1
    25    30    31    2
    26    31    32    1
    27    32    33    2
    28    33    34    1
    29    34    35    1
    30    35    36    2
    31    25    26   ar
    32    26    27    1
    33    10    11    1
    34    11    12    1
    35    17    18   ar
    36    18    14   ar
    37     7     2   ar
    38    26    22   ar
    39    12     5    1
    40    36    28    1
    41    35    30    1
@<TRIPOS>MOLECULE
*****
 36 41 0 0 0
SMALL
GASTEIGER

@<TRIPOS>ATOM
      1 C         143.4267  142.1432  158.4887 C.3     1  UNL1        0.0730
      2 C         142.3096  139.5711  165.3606 C.ar    1  UNL1        0.0532
      3 C         142.4373  138.2239  164.7134 C.ar    1  UNL1        0.0043
      4 C         142.6864  138.1213  163.2377 C.ar    1  UNL1       -0.0044
      5 C         142.8079  139.3660  162.4094 C.ar    1  UNL1       -0.0247
      6 C         142.6802  140.7130  163.0566 C.ar    1  UNL1       -0.0245
      7 C         142.4311  140.8157  164.5322 C.ar    1  UNL1        0.0001
      8 C         142.7680  142.0685  162.4201 C.3     1  UNL1        0.0433
      9 C         143.0050  142.4115  160.9791 C.3     1  UNL1        0.0768
     10 N         143.2128  141.4839  159.8190 N.3     1  UNL1       -0.2720
     11 C         143.2349  139.9841  159.8130 C.3     1  UNL1        0.0768
     12 C         143.0547  139.0415  160.9658 C.3     1  UNL1        0.0433
     13 C         140.0514  140.6552  170.0088 C.3     1  UNL1        0.0742
     14 C         141.0225  140.1719  168.9727 C.ar    1  UNL1        0.1442
     15 C         142.3317  139.4908  169.2411 C.ar    1  UNL1        0.1349
     16 N         142.9733  139.1828  167.9206 N.ar    1  UNL1       -0.2070
     17 C         142.0605  139.6736  166.8362 C.ar    1  UNL1        0.2293
     18 O         140.8549  140.2849  167.4864 O.2     1  UNL1       -0.4389
     19 C         142.6255  143.3550  158.1146 C.3     1  UNL1        0.0294
     20 C         141.4731  143.2277  157.1629 C.3     1  UNL1        0.0666
     21 S         140.0706  143.4388  157.6508 S.3     1  UNL1       -0.0756
     22 C         139.7477  143.2616  159.1049 C.ar    1  UNL1        0.1933
     23 N         139.5003  144.3621  160.0936 N.ar    1  UNL1       -0.1221
     24 N         139.2152  143.7335  161.4253 N.ar    1  UNL1       -0.1267
     25 C         139.2864  142.2443  161.2596 C.ar    1  UNL1        0.1846
     26 N         139.6155  141.9527  159.8255 N.ar    1  UNL1       -0.2872
     27 C         139.7829  140.5912  159.2186 C.3     1  UNL1        0.1340
     28 C         139.0670  141.2257  162.3386 C.2     1  UNL1        0.1167
     29 C         138.5574  141.5024  163.7220 C.2     1  UNL1        0.0234
     30 C         138.4941  140.1992  164.4620 C.2     1  UNL1        0.0155
     31 C         138.0688  139.8580  165.8594 C.2     1  UNL1        0.0009
     32 C         138.1140  138.4349  166.3308 C.2     1  UNL1       -0.0041
     33 C         138.5845  137.3526  165.4048 C.2     1  UNL1       -0.0198
     34 C         139.0098  137.6937  164.0074 C.3     1  UNL1        0.0717
     35 C         138.9645  139.1170  163.5360 C.2     1  UNL1        0.0635
     36 N         139.3186  139.7515  162.2237 N.2     1  UNL1       -0.2462
@<TRIPOS>BOND
     1    13    14    1
     2    14    15   ar
     3    15    16   ar
     4    16    17   ar
     5    17     2    1
     6     2     3   ar
     7     3     4   ar
     8     4     5   ar
     9     5     6   ar
    10     6     7   ar
    11     6     8    1
    12     8     9    1
    13     9    10    1
    14    10     1    1
    15     1    19    1
    16    19    20    1
    17    20    21    1
    18    21    22    1
    19    22    23   ar
    20    23    24   ar
    21    24    25   ar
    22    25    28    1
    23    28    29    2
    24    29    30    1
    25    30    31    2
    26    31    32    1
    27    32    33    2
    28    33    34    1
    29    34    35    1
    30    35    36    2
    31    25    26   ar
    32    26    27    1
    33    10    11    1
    34    11    12    1
    35    17    18   ar
    36    18    14   ar
    37     7     2   ar
    38    26    22   ar
    39    12     5    1
    40    36    28    1
    41    35    30    1
@<TRIPOS>MOLECULE
*****
 36 41 0 0 0
SMALL
GASTEIGER

@<TRIPOS>ATOM
      1 C         144.4437  141.6607  158.9874 C.3     1  UNL1        0.0730
      2 C         142.0836  140.4275  165.9153 C.ar    1  UNL1        0.0532
      3 C         142.4087  138.9956  165.6088 C.ar    1  UNL1        0.0043
      4 C         142.9579  138.6225  164.2636 C.ar    1  UNL1       -0.0044
      5 C         143.1819  139.6815  163.2251 C.ar    1  UNL1       -0.0247
      6 C         142.8568  141.1132  163.5316 C.ar    1  UNL1       -0.0245
      7 C         142.3076  141.4864  164.8766 C.ar    1  UNL1        0.0001
      8 C         143.0031  142.3157  162.6468 C.3     1  UNL1        0.0433
      9 C         143.5107  142.3830  161.2368 C.3     1  UNL1        0.0768
     10 N         143.9973  141.2648  160.3636 N.3     1  UNL1       -0.2720
     11 C         144.0966  139.8028  160.6845 C.3     1  UNL1        0.0768
     12 C         143.7337  139.0982  161.9580 C.3     1  UNL1        0.0433
     13 C         140.1878  143.2416  169.9610 C.3     1  UNL1        0.0742
     14 C         140.6630  142.0940  169.1199 C.ar    1  UNL1        0.1442
     15 C         140.7156  140.6552  169.5405 C.ar    1  UNL1        0.1349
     16 N         141.2542  139.8557  168.3911 N.ar    1  UNL1       -0.2070
     17 C         141.5344  140.8005  167.2603 C.ar    1  UNL1        0.2293
     18 O         141.1691  142.1839  167.7107 O.2     1  UNL1       -0.4389
     19 C         143.5761  142.5466  158.1433 C.3     1  UNL1        0.0294
     20 C         142.8363  141.9745  156.9704 C.3     1  UNL1        0.0666
     21 S         141.4427  141.4487  157.1468 S.3     1  UNL1       -0.0756
     22 C         141.1477  140.4545  158.2305 C.ar    1  UNL1        0.1933
     23 N         141.3766  138.9740  158.1548 N.ar    1  UNL1       -0.1221
     24 N         140.9424  138.3706  159.4577 N.ar    1  UNL1       -0.1267
     25 C         140.4452  139.4782  160.3386 C.ar    1  UNL1        0.1846
     26 N         140.5721  140.7662  159.5801 N.ar    1  UNL1       -0.2872
     27 C         140.1903  142.1268  160.0831 C.3     1  UNL1        0.1340
     28 C         139.9143  139.3249  161.7331 C.2     1  UNL1        0.1167
     29 C         139.7693  138.0347  162.4844 C.2     1  UNL1        0.0234
     30 C         139.2006  138.3472  163.8368 C.2     1  UNL1        0.0155
     31 C         138.8441  137.4728  165.0022 C.2     1  UNL1        0.0009
     32 C         138.2811  138.0816  166.2521 C.2     1  UNL1       -0.0041
     33 C         138.0747  139.5650  166.3367 C.2     1  UNL1       -0.0198
     34 C         138.4312  140.4394  165.1712 C.3     1  UNL1        0.0717
     35 C         138.9942  139.8305  163.9213 C.2     1  UNL1        0.0635
     36 N         139.4353  140.4347  162.6211 N.2     1  UNL1       -0.2462
@<TRIPOS>BOND
     1    13    14    1
     2    14    15   ar
     3    15    16   ar
     4    16    17   ar
     5    17     2    1
     6     2     3   ar
     7     3     4   ar
     8     4     5   ar
     9     5     6   ar
    10     6     7   ar
    11     6     8    1
    12     8     9    1
    13     9    10    1
    14    10     1    1
    15     1    19    1
    16    19    20    1
    17    20    21    1
    18    21    22    1
    19    22    23   ar
    20    23    24   ar
    21    24    25   ar
    22    25    28    1
    23    28    29    2
    24    29    30    1
    25    30    31    2
    26    31    32    1
    27    32    33    2
    28    33    34    1
    29    34    35    1
    30    35    36    2
    31    25    26   ar
    32    26    27    1
    33    10    11    1
    34    11    12    1
    35    17    18   ar
    36    18    14   ar
    37     7     2   ar
    38    26    22   ar
    39    12     5    1
    40    36    28    1
    41    35    30    1
@<TRIPOS>MOLECULE
*****
 36 41 0 0 0
SMALL
GASTEIGER

@<TRIPOS>ATOM
      1 C         142.4187  137.7292  159.0579 C.3     1  UNL1        0.0730
      2 C         139.8438  140.3878  165.4913 C.ar    1  UNL1        0.0532
      3 C         138.5132  140.3493  164.7998 C.ar    1  UNL1        0.0043
      4 C         138.4179  139.8657  163.3830 C.ar    1  UNL1       -0.0044
      5 C         139.6533  139.4206  162.6578 C.ar    1  UNL1       -0.0247
      6 C         140.9838  139.4592  163.3493 C.ar    1  UNL1       -0.0245
      7 C         141.0791  139.9428  164.7660 C.ar    1  UNL1        0.0001
      8 C         142.3280  139.0640  162.8136 C.3     1  UNL1        0.0433
      9 C         142.6736  138.5327  161.4540 C.3     1  UNL1        0.0768
     10 N         141.7605  138.2654  160.2946 N.3     1  UNL1       -0.2720
     11 C         140.2761  138.4633  160.2081 C.3     1  UNL1        0.0768
     12 C         139.3383  138.9774  161.2598 C.3     1  UNL1        0.0433
     13 C         140.6322  143.4760  169.7011 C.3     1  UNL1        0.0742
     14 C         140.3013  142.2909  168.8430 C.ar    1  UNL1        0.1442
     15 C         139.8696  140.9406  169.3331 C.ar    1  UNL1        0.1349
     16 N         139.6456  140.0632  168.1371 N.ar    1  UNL1       -0.2070
     17 C         139.9390  140.8714  166.9080 C.ar    1  UNL1        0.2293
     18 O         140.3442  142.2482  167.3442 O.2     1  UNL1       -0.4389
     19 C         141.9817  138.2116  157.7064 C.3     1  UNL1        0.0294
     20 C         142.9125  139.0358  156.8671 C.3     1  UNL1        0.0666
     21 S         142.9627  140.5244  157.0443 S.3     1  UNL1       -0.0756
     22 C         142.9085  141.1181  158.4207 C.ar    1  UNL1        0.1933
     23 N         144.0805  141.3497  159.3278 N.ar    1  UNL1       -0.1221
     24 N         143.5692  141.9592  160.5994 N.ar    1  UNL1       -0.1267
     25 C         142.0811  142.1043  160.4782 C.ar    1  UNL1        0.1846
     26 N         141.6728  141.5845  159.1317 N.ar    1  UNL1       -0.2872
     27 C         140.2743  141.5391  158.5912 C.3     1  UNL1        0.1340
     28 C         141.1627  142.6700  161.5206 C.2     1  UNL1        0.1167
     29 C         141.5803  143.2879  162.8220 C.2     1  UNL1        0.0234
     30 C         140.3410  143.7169  163.5503 C.2     1  UNL1        0.0155
     31 C         140.1374  144.3831  164.8787 C.2     1  UNL1        0.0009
     32 C         138.7503  144.6966  165.3556 C.2     1  UNL1       -0.0041
     33 C         137.5667  144.3438  164.5042 C.2     1  UNL1       -0.0198
     34 C         137.7704  143.6775  163.1759 C.3     1  UNL1        0.0717
     35 C         139.1576  143.3641  162.6989 C.2     1  UNL1        0.0635
     36 N         139.6654  142.7171  161.4445 N.2     1  UNL1       -0.2462
@<TRIPOS>BOND
     1    13    14    1
     2    14    15   ar
     3    15    16   ar
     4    16    17   ar
     5    17     2    1
     6     2     3   ar
     7     3     4   ar
     8     4     5   ar
     9     5     6   ar
    10     6     7   ar
    11     6     8    1
    12     8     9    1
    13     9    10    1
    14    10     1    1
    15     1    19    1
    16    19    20    1
    17    20    21    1
    18    21    22    1
    19    22    23   ar
    20    23    24   ar
    21    24    25   ar
    22    25    28    1
    23    28    29    2
    24    29    30    1
    25    30    31    2
    26    31    32    1
    27    32    33    2
    28    33    34    1
    29    34    35    1
    30    35    36    2
    31    25    26   ar
    32    26    27    1
    33    10    11    1
    34    11    12    1
    35    17    18   ar
    36    18    14   ar
    37     7     2   ar
    38    26    22   ar
    39    12     5    1
    40    36    28    1
    41    35    30    1
@<TRIPOS>MOLECULE
*****
 36 41 0 0 0
SMALL
GASTEIGER

@<TRIPOS>ATOM
      1 C         142.4431  137.7017  159.9061 C.3     1  UNL1        0.0730
      2 C         139.3912  139.4799  166.4338 C.ar    1  UNL1        0.0532
      3 C         138.2003  139.8550  165.6025 C.ar    1  UNL1        0.0043
      4 C         138.2465  139.6967  164.1115 C.ar    1  UNL1       -0.0044
      5 C         139.4837  139.1633  163.4519 C.ar    1  UNL1       -0.0247
      6 C         140.6744  138.7883  164.2832 C.ar    1  UNL1       -0.0245
      7 C         140.6283  138.9465  165.7741 C.ar    1  UNL1        0.0001
      8 C         141.9963  138.2422  163.8308 C.3     1  UNL1        0.0433
      9 C         142.4536  137.9363  162.4353 C.3     1  UNL1        0.0768
     10 N         141.7022  138.1010  161.1477 N.3     1  UNL1       -0.2720
     11 C         140.3077  138.6123  160.9374 C.3     1  UNL1        0.0768
     12 C         139.3204  139.0850  161.9629 C.3     1  UNL1        0.0433
     13 C         140.8442  140.2874  171.4455 C.3     1  UNL1        0.0742
     14 C         140.0128  140.0094  170.2282 C.ar    1  UNL1        0.1442
     15 C         138.5348  139.7542  170.2096 C.ar    1  UNL1        0.1349
     16 N         138.1220  139.5248  168.7858 N.ar    1  UNL1       -0.2070
     17 C         139.3449  139.6382  167.9246 C.ar    1  UNL1        0.2293
     18 O         140.5135  139.9377  168.8161 O.2     1  UNL1       -0.4389
     19 C         142.4136  138.5890  158.6970 C.3     1  UNL1        0.0294
     20 C         143.3903  139.7207  158.5730 C.3     1  UNL1        0.0666
     21 S         143.1687  140.9901  159.3406 S.3     1  UNL1       -0.0756
     22 C         143.5098  141.0534  160.8000 C.ar    1  UNL1        0.1933
     23 N         144.8041  140.6207  161.4224 N.ar    1  UNL1       -0.1221
     24 N         144.7107  140.8604  162.9002 N.ar    1  UNL1       -0.1267
     25 C         143.3587  141.4413  163.1910 C.ar    1  UNL1        0.1846
     26 N         142.6164  141.5606  161.8930 N.ar    1  UNL1       -0.2872
     27 C         141.2252  142.0935  161.7187 C.3     1  UNL1        0.1340
     28 C         142.8400  141.8339  164.5426 C.2     1  UNL1        0.1167
     29 C         141.4592  142.3357  164.8454 C.2     1  UNL1        0.0234
     30 C         141.3768  142.6056  166.3186 C.2     1  UNL1        0.0155
     31 C         140.2626  143.1131  167.1853 C.2     1  UNL1        0.0009
     32 C         140.4783  143.2857  168.6595 C.2     1  UNL1       -0.0041
     33 C         141.8082  142.9509  169.2673 C.2     1  UNL1       -0.0198
     34 C         142.9223  142.4434  168.4006 C.3     1  UNL1        0.0717
     35 C         142.7066  142.2708  166.9263 C.2     1  UNL1        0.0635
     36 N         143.6109  141.7939  165.8286 N.2     1  UNL1       -0.2462
@<TRIPOS>BOND
     1    13    14    1
     2    14    15   ar
     3    15    16   ar
     4    16    17   ar
     5    17     2    1
     6     2     3   ar
     7     3     4   ar
     8     4     5   ar
     9     5     6   ar
    10     6     7   ar
    11     6     8    1
    12     8     9    1
    13     9    10    1
    14    10     1    1
    15     1    19    1
    16    19    20    1
    17    20    21    1
    18    21    22    1
    19    22    23   ar
    20    23    24   ar
    21    24    25   ar
    22    25    28    1
    23    28    29    2
    24    29    30    1
    25    30    31    2
    26    31    32    1
    27    32    33    2
    28    33    34    1
    29    34    35    1
    30    35    36    2
    31    25    26   ar
    32    26    27    1
    33    10    11    1
    34    11    12    1
    35    17    18   ar
    36    18    14   ar
    37     7     2   ar
    38    26    22   ar
    39    12     5    1
    40    36    28    1
    41    35    30    1
@<TRIPOS>MOLECULE
*****
 36 41 0 0 0
SMALL
GASTEIGER

@<TRIPOS>ATOM
      1 C         139.7426  143.8352  158.5190 C.3     1  UNL1        0.0730
      2 C         140.4602  141.5617  165.5477 C.ar    1  UNL1        0.0532
      3 C         139.0689  141.0337  165.3589 C.ar    1  UNL1        0.0043
      4 C         138.3694  141.2161  164.0445 C.ar    1  UNL1       -0.0044
      5 C         139.0612  141.9265  162.9190 C.ar    1  UNL1       -0.0247
      6 C         140.4524  142.4545  163.1079 C.ar    1  UNL1       -0.0245
      7 C         141.1519  142.2722  164.4221 C.ar    1  UNL1        0.0001
      8 C         141.3164  143.1868  162.1243 C.3     1  UNL1        0.0433
      9 C         141.0024  143.5718  160.7088 C.3     1  UNL1        0.0768
     10 N         139.7471  143.3197  159.9276 N.3     1  UNL1       -0.2720
     11 C         138.4955  142.6203  160.3687 C.3     1  UNL1        0.0768
     12 C         138.1903  142.0003  161.7000 C.3     1  UNL1        0.0433
     13 C         143.7132  142.2706  169.6460 C.3     1  UNL1        0.0742
     14 C         142.6548  141.7052  168.7458 C.ar    1  UNL1        0.1442
     15 C         141.8171  140.4922  169.0234 C.ar    1  UNL1        0.1349
     16 N         140.8930  140.2908  167.8591 N.ar    1  UNL1       -0.2070
     17 C         141.1596  141.3793  166.8620 C.ar    1  UNL1        0.2293
     18 O         142.2485  142.2534  167.4101 O.2     1  UNL1       -0.4389
     19 C         139.0012  143.0890  157.4496 C.3     1  UNL1        0.0294
     20 C         139.7595  142.3265  156.4038 C.3     1  UNL1        0.0666
     21 S         139.9553  140.8465  156.5491 S.3     1  UNL1       -0.0756
     22 C         139.9061  140.2134  157.9081 C.ar    1  UNL1        0.1933
     23 N         138.7680  139.4116  158.4665 N.ar    1  UNL1       -0.1221
     24 N         139.1448  138.9735  159.8507 N.ar    1  UNL1       -0.1267
     25 C         140.5159  139.5045  160.1478 C.ar    1  UNL1        0.1846
     26 N         140.9864  140.2708  158.9471 N.ar    1  UNL1       -0.2872
     27 C         142.3056  140.9714  158.8098 C.3     1  UNL1        0.1340
     28 C         141.2820  139.3043  161.4217 C.2     1  UNL1        0.1167
     29 C         140.7755  138.6204  162.6570 C.2     1  UNL1        0.0234
     30 C         141.8695  138.6464  163.6829 C.2     1  UNL1        0.0155
     31 C         141.9417  138.1231  165.0868 C.2     1  UNL1        0.0009
     32 C         143.1964  138.2997  165.8894 C.2     1  UNL1       -0.0041
     33 C         144.3791  138.9996  165.2883 C.2     1  UNL1       -0.0198
     34 C         144.3070  139.5229  163.8844 C.3     1  UNL1        0.0717
     35 C         143.0522  139.3463  163.0817 C.2     1  UNL1        0.0635
     36 N         142.6890  139.7529  161.6842 N.2     1  UNL1       -0.2462
@<TRIPOS>BOND
     1    13    14    1
     2    14    15   ar
     3    15    16   ar
     4    16    17   ar
     5    17     2    1
     6     2     3   ar
     7     3     4   ar
     8     4     5   ar
     9     5     6   ar
    10     6     7   ar
    11     6     8    1
    12     8     9    1
    13     9    10    1
    14    10     1    1
    15     1    19    1
    16    19    20    1
    17    20    21    1
    18    21    22    1
    19    22    23   ar
    20    23    24   ar
    21    24    25   ar
    22    25    28    1
    23    28    29    2
    24    29    30    1
    25    30    31    2
    26    31    32    1
    27    32    33    2
    28    33    34    1
    29    34    35    1
    30    35    36    2
    31    25    26   ar
    32    26    27    1
    33    10    11    1
    34    11    12    1
    35    17    18   ar
    36    18    14   ar
    37     7     2   ar
    38    26    22   ar
    39    12     5    1
    40    36    28    1
    41    35    30    1
@<TRIPOS>MOLECULE
*****
 36 41 0 0 0
SMALL
GASTEIGER

@<TRIPOS>ATOM
      1 C         140.0418  142.0912  169.5430 C.3     1  UNL1        0.0730
      2 C         139.0795  139.4398  162.6778 C.ar    1  UNL1        0.0532
      3 C         138.7427  138.1597  163.3833 C.ar    1  UNL1        0.0043
      4 C         138.7732  138.0986  164.8818 C.ar    1  UNL1       -0.0044
      5 C         139.1405  139.3178  165.6747 C.ar    1  UNL1       -0.0247
      6 C         139.4773  140.5979  164.9692 C.ar    1  UNL1       -0.0245
      7 C         139.4469  140.6590  163.4708 C.ar    1  UNL1        0.0001
      8 C         139.8669  141.9189  165.5637 C.3     1  UNL1        0.0433
      9 C         140.0159  142.2859  167.0105 C.3     1  UNL1        0.0768
     10 N         139.8121  141.4226  168.2200 N.3     1  UNL1       -0.2720
     11 C         139.4090  139.9791  168.2817 C.3     1  UNL1        0.0768
     12 C         139.1101  139.0424  167.1489 C.3     1  UNL1        0.0433
     13 C         138.1343  141.0393  157.7352 C.3     1  UNL1        0.0742
     14 C         138.6146  140.2360  158.9076 C.ar    1  UNL1        0.1442
     15 C         139.3895  138.9535  158.8395 C.ar    1  UNL1        0.1349
     16 N         139.6580  138.4991  160.2436 N.ar    1  UNL1       -0.2070
     17 C         139.0490  139.5008  161.1794 C.ar    1  UNL1        0.2293
     18 O         138.4041  140.5743  160.3536 O.2     1  UNL1       -0.4389
     19 C         140.8025  143.3824  169.6088 C.3     1  UNL1        0.0294
     20 C         142.2308  143.3889  170.0672 C.3     1  UNL1        0.0666
     21 S         142.9414  142.0935  170.3256 S.3     1  UNL1       -0.0756
     22 C         142.9520  141.0216  169.2764 C.ar    1  UNL1        0.1933
     23 N         142.7907  139.5499  169.5178 N.ar    1  UNL1       -0.1221
     24 N         142.8647  138.8519  168.1922 N.ar    1  UNL1       -0.1267
     25 C         143.0718  139.8921  167.1315 C.ar    1  UNL1        0.1846
     26 N         143.1257  141.2331  167.8016 N.ar    1  UNL1       -0.2872
     27 C         143.3194  142.5537  167.1170 C.3     1  UNL1        0.1340
     28 C         143.2021  139.6364  165.6592 C.2     1  UNL1        0.1167
     29 C         142.5252  138.5398  164.8916 C.2     1  UNL1        0.0234
     30 C         142.9369  138.6579  163.4540 C.2     1  UNL1        0.0155
     31 C         142.5841  137.8516  162.2393 C.2     1  UNL1        0.0009
     32 C         143.1625  138.2149  160.9040 C.2     1  UNL1       -0.0041
     33 C         144.0939  139.3846  160.7831 C.2     1  UNL1       -0.0198
     34 C         144.4467  140.1909  161.9978 C.3     1  UNL1        0.0717
     35 C         143.8682  139.8276  163.3332 C.2     1  UNL1        0.0635
     36 N         144.0320  140.4322  164.6961 N.2     1  UNL1       -0.2462
@<TRIPOS>BOND
     1    13    14    1
     2    14    15   ar
     3    15    16   ar
     4    16    17   ar
     5    17     2    1
     6     2     3   ar
     7     3     4   ar
     8     4     5   ar
     9     5     6   ar
    10     6     7   ar
    11     6     8    1
    12     8     9    1
    13     9    10    1
    14    10     1    1
    15     1    19    1
    16    19    20    1
    17    20    21    1
    18    21    22    1
    19    22    23   ar
    20    23    24   ar
    21    24    25   ar
    22    25    28    1
    23    28    29    2
    24    29    30    1
    25    30    31    2
    26    31    32    1
    27    32    33    2
    28    33    34    1
    29    34    35    1
    30    35    36    2
    31    25    26   ar
    32    26    27    1
    33    10    11    1
    34    11    12    1
    35    17    18   ar
    36    18    14   ar
    37     7     2   ar
    38    26    22   ar
    39    12     5    1
    40    36    28    1
    41    35    30    1
