@<TRIPOS>MOLECULE
*****
 26 29 0 0 0
SMALL
GASTEIGER

@<TRIPOS>ATOM
      1 C         140.1571  140.2795  168.5035 C.3     1  UNL1        0.0559
      2 C         140.0479  140.3587  167.0095 C.3     1  UNL1        0.2097
      3 N         139.2097  139.4705  166.1385 N.pl3   1  UNL1       -0.2165
      4 C         139.4015  139.9028  164.7150 C.2     1  UNL1        0.3402
      5 N         140.3582  141.0580  164.7062 N.2     1  UNL1       -0.0595
      6 C         140.7577  141.3398  166.1243 C.3     1  UNL1        0.2515
      7 H         138.6347  138.7333  166.4469 H       1  UNL1        0.2923
      8 C         141.3306  141.8490  167.4137 C.ar    1  UNL1        0.0297
      9 C         140.6003  142.9002  168.1957 C.ar    1  UNL1        0.0025
     10 C         141.1733  143.4093  169.4850 C.ar    1  UNL1        0.0295
     11 C         142.4766  142.8672  169.9924 C.ar    1  UNL1        0.1401
     12 F         143.0495  143.3764  171.2819 F       1  UNL1       -0.2042
     13 C         143.2069  141.8160  169.2105 C.ar    1  UNL1        0.0295
     14 C         142.6340  141.3069  167.9212 C.ar    1  UNL1        0.0025
     15 C         141.5873  142.4274  165.5087 C.ar    1  UNL1        0.0488
     16 C         143.0838  142.3257  165.5183 C.ar    1  UNL1        0.0057
     17 C         143.9134  143.4133  164.9027 C.ar    1  UNL1        0.0495
     18 C         143.2465  144.6025  164.2775 C.ar    1  UNL1        0.2223
     19 F         144.0761  145.6900  163.6619 F       1  UNL1       -0.1832
     20 N         141.7500  144.7042  164.2678 N.ar    1  UNL1       -0.2166
     21 C         140.9203  143.6166  164.8835 C.ar    1  UNL1        0.1014
     22 C         138.7509  139.2877  163.5116 C.ar    1  UNL1        0.1927
     23 N         138.7353  137.8279  163.1671 N.ar    1  UNL1       -0.2297
     24 C         137.9763  137.6625  161.8839 C.ar    1  UNL1        0.1067
     25 C         137.5228  139.0201  161.4353 C.ar    1  UNL1        0.0577
     26 S         138.0014  140.0245  162.4412 S.2     1  UNL1       -0.0586
@<TRIPOS>BOND
     1     2     1    1
     2     2     3    1
     3     3     4    1
     4     4    22    1
     5    22    23   ar
     6    23    24   ar
     7    24    25   ar
     8    25    26   ar
     9     4     5    2
    10     5     6    1
    11     6     8    1
    12     8     9   ar
    13     9    10   ar
    14    10    11   ar
    15    11    12    1
    16    11    13   ar
    17    13    14   ar
    18     6    15    1
    19    15    16   ar
    20    16    17   ar
    21    17    18   ar
    22    18    19    1
    23    18    20   ar
    24    20    21   ar
    25     6     2    1
    26    14     8   ar
    27    21    15   ar
    28    26    22   ar
    29     3     7    1
@<TRIPOS>MOLECULE
*****
 26 29 0 0 0
SMALL
GASTEIGER

@<TRIPOS>ATOM
      1 C         142.4625  139.6079  168.1383 C.3     1  UNL1        0.0559
      2 C         142.2123  139.6681  166.6605 C.3     1  UNL1        0.2097
      3 N         142.8850  138.8258  165.6173 N.pl3   1  UNL1       -0.2165
      4 C         142.3340  139.2183  164.2786 C.2     1  UNL1        0.3402
      5 N         141.3208  140.3031  164.4943 N.2     1  UNL1       -0.0595
      6 C         141.2456  140.5811  165.9664 C.3     1  UNL1        0.2515
      7 H         143.5682  138.1365  165.7824 H       1  UNL1        0.2923
      8 C         140.9555  141.0714  167.3540 C.ar    1  UNL1        0.0297
      9 C         139.8439  140.4548  168.1503 C.ar    1  UNL1        0.0025
     10 C         139.5539  140.9452  169.5379 C.ar    1  UNL1        0.0295
     11 C         140.3756  142.0521  170.1292 C.ar    1  UNL1        0.1401
     12 F         140.0856  142.5424  171.5169 F       1  UNL1       -0.2042
     13 C         141.4872  142.6686  169.3329 C.ar    1  UNL1        0.0295
     14 C         141.7772  142.1783  167.9453 C.ar    1  UNL1        0.0025
     15 C         140.2182  141.5966  165.5624 C.ar    1  UNL1        0.0488
     16 C         140.5332  143.0602  165.6555 C.ar    1  UNL1        0.0057
     17 C         139.5058  144.0758  165.2515 C.ar    1  UNL1        0.0495
     18 C         138.1634  143.6277  164.7544 C.ar    1  UNL1        0.2223
     19 F         137.1361  144.6432  164.3504 F       1  UNL1       -0.1832
     20 N         137.8483  142.1641  164.6612 N.ar    1  UNL1       -0.2166
     21 C         138.8757  141.1485  165.0652 C.ar    1  UNL1        0.1014
     22 C         142.7272  138.6294  162.9563 C.ar    1  UNL1        0.1927
     23 N         144.1215  138.5404  162.4104 N.ar    1  UNL1       -0.2297
     24 C         144.0511  137.8820  161.0644 C.ar    1  UNL1        0.1067
     25 C         142.6134  137.5642  160.7784 C.ar    1  UNL1        0.0577
     26 S         141.7951  138.0261  161.9476 S.2     1  UNL1       -0.0586
@<TRIPOS>BOND
     1     2     1    1
     2     2     3    1
     3     3     4    1
     4     4    22    1
     5    22    23   ar
     6    23    24   ar
     7    24    25   ar
     8    25    26   ar
     9     4     5    2
    10     5     6    1
    11     6     8    1
    12     8     9   ar
    13     9    10   ar
    14    10    11   ar
    15    11    12    1
    16    11    13   ar
    17    13    14   ar
    18     6    15    1
    19    15    16   ar
    20    16    17   ar
    21    17    18   ar
    22    18    19    1
    23    18    20   ar
    24    20    21   ar
    25     6     2    1
    26    14     8   ar
    27    21    15   ar
    28    26    22   ar
    29     3     7    1
@<TRIPOS>MOLECULE
*****
 26 29 0 0 0
SMALL
GASTEIGER

@<TRIPOS>ATOM
      1 C         140.8083  137.4677  164.7077 C.3     1  UNL1        0.0559
      2 C         140.7874  138.0945  163.3451 C.3     1  UNL1        0.2097
      3 N         141.3841  137.5127  162.0978 N.pl3   1  UNL1       -0.2165
      4 C         141.1316  138.4717  160.9724 C.2     1  UNL1        0.3402
      5 N         140.3790  139.6460  161.5240 N.2     1  UNL1       -0.0595
      6 C         140.1662  139.4129  162.9904 C.3     1  UNL1        0.2515
      7 H         141.8582  136.6526  162.0298 H       1  UNL1        0.2923
      8 C         139.8079  139.4574  164.4464 C.ar    1  UNL1        0.0297
      9 C         140.7738  140.0329  165.4392 C.ar    1  UNL1        0.0025
     10 C         140.4155  140.0773  166.8951 C.ar    1  UNL1        0.0295
     11 C         139.0913  139.5463  167.3581 C.ar    1  UNL1        0.1401
     12 F         138.7330  139.5908  168.8140 F       1  UNL1       -0.2042
     13 C         138.1254  138.9708  166.3653 C.ar    1  UNL1        0.0295
     14 C         138.4837  138.9263  164.9094 C.ar    1  UNL1        0.0025
     15 C         139.4701  140.7406  162.9401 C.ar    1  UNL1        0.0488
     16 C         140.2049  141.9880  163.3327 C.ar    1  UNL1        0.0057
     17 C         139.5088  143.3158  163.2824 C.ar    1  UNL1        0.0495
     18 C         138.0779  143.3962  162.8396 C.ar    1  UNL1        0.2223
     19 F         137.3819  144.7239  162.7894 F       1  UNL1       -0.1832
     20 N         137.3431  142.1488  162.4471 N.ar    1  UNL1       -0.2166
     21 C         138.0392  140.8210  162.4974 C.ar    1  UNL1        0.1014
     22 C         141.5571  138.2884  159.5458 C.ar    1  UNL1        0.1927
     23 N         142.9366  137.9329  159.0758 N.ar    1  UNL1       -0.2297
     24 C         142.9099  137.8533  157.5782 C.ar    1  UNL1        0.1067
     25 C         141.5140  138.1595  157.1225 C.ar    1  UNL1        0.0577
     26 S         140.6779  138.4284  158.3385 S.2     1  UNL1       -0.0586
@<TRIPOS>BOND
     1     2     1    1
     2     2     3    1
     3     3     4    1
     4     4    22    1
     5    22    23   ar
     6    23    24   ar
     7    24    25   ar
     8    25    26   ar
     9     4     5    2
    10     5     6    1
    11     6     8    1
    12     8     9   ar
    13     9    10   ar
    14    10    11   ar
    15    11    12    1
    16    11    13   ar
    17    13    14   ar
    18     6    15    1
    19    15    16   ar
    20    16    17   ar
    21    17    18   ar
    22    18    19    1
    23    18    20   ar
    24    20    21   ar
    25     6     2    1
    26    14     8   ar
    27    21    15   ar
    28    26    22   ar
    29     3     7    1
@<TRIPOS>MOLECULE
*****
 26 29 0 0 0
SMALL
GASTEIGER

@<TRIPOS>ATOM
      1 C         141.6199  145.2887  163.6141 C.3     1  UNL1        0.0559
      2 C         141.2591  144.8009  162.2423 C.3     1  UNL1        0.2097
      3 N         141.6300  145.4594  160.9465 N.pl3   1  UNL1       -0.2165
      4 C         141.0642  144.6344  159.8288 C.2     1  UNL1        0.3402
      5 N         140.3437  143.4661  160.4337 N.2     1  UNL1       -0.0595
      6 C         140.4642  143.5690  161.9253 C.3     1  UNL1        0.2515
      7 H         142.1529  146.2876  160.8471 H       1  UNL1        0.2923
      8 C         140.4163  143.4073  163.4158 C.ar    1  UNL1        0.0297
      9 C         141.4680  142.5993  164.1167 C.ar    1  UNL1        0.0025
     10 C         141.4201  142.4376  165.6072 C.ar    1  UNL1        0.0295
     11 C         140.3205  143.0839  166.3967 C.ar    1  UNL1        0.1401
     12 F         140.2727  142.9221  167.8873 F       1  UNL1       -0.2042
     13 C         139.2689  143.8918  165.6959 C.ar    1  UNL1        0.0295
     14 C         139.3168  144.0535  164.2054 C.ar    1  UNL1        0.0025
     15 C         139.6592  142.3033  161.9200 C.ar    1  UNL1        0.0488
     16 C         140.3500  140.9756  161.8196 C.ar    1  UNL1        0.0057
     17 C         139.5450  139.7098  161.8143 C.ar    1  UNL1        0.0495
     18 C         138.0493  139.7718  161.9093 C.ar    1  UNL1        0.2223
     19 F         137.2444  138.5061  161.9040 F       1  UNL1       -0.1832
     20 N         137.3585  141.0995  162.0096 N.ar    1  UNL1       -0.2166
     21 C         138.1635  142.3653  162.0150 C.ar    1  UNL1        0.1014
     22 C         141.1959  144.9265  158.3635 C.ar    1  UNL1        0.1927
     23 N         142.3037  145.7027  157.7152 N.ar    1  UNL1       -0.2297
     24 C         142.0353  145.7495  156.2401 C.ar    1  UNL1        0.1067
     25 C         140.7616  145.0023  155.9767 C.ar    1  UNL1        0.0577
     26 S         140.2428  144.4936  157.2890 S.2     1  UNL1       -0.0586
@<TRIPOS>BOND
     1     2     1    1
     2     2     3    1
     3     3     4    1
     4     4    22    1
     5    22    23   ar
     6    23    24   ar
     7    24    25   ar
     8    25    26   ar
     9     4     5    2
    10     5     6    1
    11     6     8    1
    12     8     9   ar
    13     9    10   ar
    14    10    11   ar
    15    11    12    1
    16    11    13   ar
    17    13    14   ar
    18     6    15    1
    19    15    16   ar
    20    16    17   ar
    21    17    18   ar
    22    18    19    1
    23    18    20   ar
    24    20    21   ar
    25     6     2    1
    26    14     8   ar
    27    21    15   ar
    28    26    22   ar
    29     3     7    1
@<TRIPOS>MOLECULE
*****
 26 29 0 0 0
SMALL
GASTEIGER

@<TRIPOS>ATOM
      1 C         143.1332  142.4481  167.9336 C.3     1  UNL1        0.0559
      2 C         142.8908  142.0684  166.5027 C.3     1  UNL1        0.2097
      3 N         143.5715  142.6626  165.3054 N.pl3   1  UNL1       -0.2165
      4 C         143.0266  141.9893  164.0808 C.2     1  UNL1        0.3402
      5 N         142.0092  140.9790  164.5212 N.2     1  UNL1       -0.0595
      6 C         141.9252  141.0278  166.0181 C.3     1  UNL1        0.2515
      7 H         144.2558  143.3702  165.3207 H       1  UNL1        0.2923
      8 C         141.6263  140.8515  167.4774 C.ar    1  UNL1        0.0297
      9 C         140.6607  141.7729  168.1619 C.ar    1  UNL1        0.0025
     10 C         140.3619  141.5964  169.6212 C.ar    1  UNL1        0.0295
     11 C         141.0286  140.4986  170.3959 C.ar    1  UNL1        0.1401
     12 F         140.7297  140.3222  171.8553 F       1  UNL1       -0.2042
     13 C         141.9942  139.5772  169.7114 C.ar    1  UNL1        0.0295
     14 C         142.2930  139.7536  168.2522 C.ar    1  UNL1        0.0025
     15 C         140.8971  139.9505  165.8385 C.ar    1  UNL1        0.0488
     16 C         139.4781  140.1899  166.2614 C.ar    1  UNL1        0.0057
     17 C         138.4499  139.1125  166.0819 C.ar    1  UNL1        0.0495
     18 C         138.8409  137.7956  165.4794 C.ar    1  UNL1        0.2223
     19 F         137.8128  136.7183  165.2998 F       1  UNL1       -0.1832
     20 N         140.2599  137.5562  165.0564 N.ar    1  UNL1       -0.2166
     21 C         141.2881  138.6336  165.2360 C.ar    1  UNL1        0.1014
     22 C         143.4286  142.2760  162.6644 C.ar    1  UNL1        0.1927
     23 N         144.8227  142.2155  162.1141 N.ar    1  UNL1       -0.2297
     24 C         144.7628  142.5756  160.6592 C.ar    1  UNL1        0.1067
     25 C         143.3317  142.8587  160.3103 C.ar    1  UNL1        0.0577
     26 S         142.5071  142.6735  161.5496 S.2     1  UNL1       -0.0586
@<TRIPOS>BOND
     1     2     1    1
     2     2     3    1
     3     3     4    1
     4     4    22    1
     5    22    23   ar
     6    23    24   ar
     7    24    25   ar
     8    25    26   ar
     9     4     5    2
    10     5     6    1
    11     6     8    1
    12     8     9   ar
    13     9    10   ar
    14    10    11   ar
    15    11    12    1
    16    11    13   ar
    17    13    14   ar
    18     6    15    1
    19    15    16   ar
    20    16    17   ar
    21    17    18   ar
    22    18    19    1
    23    18    20   ar
    24    20    21   ar
    25     6     2    1
    26    14     8   ar
    27    21    15   ar
    28    26    22   ar
    29     3     7    1
@<TRIPOS>MOLECULE
*****
 26 29 0 0 0
SMALL
GASTEIGER

@<TRIPOS>ATOM
      1 C         142.1007  145.2030  163.9432 C.3     1  UNL1        0.0559
      2 C         142.0421  144.6716  162.5416 C.3     1  UNL1        0.2097
      3 N         141.6083  145.4363  161.3262 N.pl3   1  UNL1       -0.2165
      4 C         141.7051  144.5196  160.1430 C.2     1  UNL1        0.3402
      5 N         142.1986  143.1884  160.6270 N.2     1  UNL1       -0.0595
      6 C         142.4069  143.2823  162.1094 C.3     1  UNL1        0.2515
      7 H         141.3122  146.3750  161.3083 H       1  UNL1        0.2923
      8 C         142.7045  143.0768  163.5652 C.ar    1  UNL1        0.0297
      9 C         144.0613  143.4145  164.1083 C.ar    1  UNL1        0.0025
     10 C         144.3588  143.2089  165.5641 C.ar    1  UNL1        0.0295
     11 C         143.2995  142.6658  166.4767 C.ar    1  UNL1        0.1401
     12 F         143.5971  142.4603  167.9325 F       1  UNL1       -0.2042
     13 C         141.9427  142.3282  165.9336 C.ar    1  UNL1        0.0295
     14 C         141.6452  142.5337  164.4779 C.ar    1  UNL1        0.0025
     15 C         142.8339  141.8501  161.9816 C.ar    1  UNL1        0.0488
     16 C         141.8075  140.7565  162.0053 C.ar    1  UNL1        0.0057
     17 C         142.2345  139.3242  161.8774 C.ar    1  UNL1        0.0495
     18 C         143.6879  138.9855  161.7259 C.ar    1  UNL1        0.2223
     19 F         144.1148  137.5533  161.5981 F       1  UNL1       -0.1832
     20 N         144.7143  140.0791  161.7023 N.ar    1  UNL1       -0.2166
     21 C         144.2873  141.5114  161.8301 C.ar    1  UNL1        0.1014
     22 C         141.3675  144.8722  158.7246 C.ar    1  UNL1        0.1927
     23 N         142.1433  145.8011  157.8385 N.ar    1  UNL1       -0.2297
     24 C         141.4502  145.8608  156.5096 C.ar    1  UNL1        0.1067
     25 C         140.2460  144.9688  156.5744 C.ar    1  UNL1        0.0577
     26 S         140.1949  144.3578  157.9433 S.2     1  UNL1       -0.0586
@<TRIPOS>BOND
     1     2     1    1
     2     2     3    1
     3     3     4    1
     4     4    22    1
     5    22    23   ar
     6    23    24   ar
     7    24    25   ar
     8    25    26   ar
     9     4     5    2
    10     5     6    1
    11     6     8    1
    12     8     9   ar
    13     9    10   ar
    14    10    11   ar
    15    11    12    1
    16    11    13   ar
    17    13    14   ar
    18     6    15    1
    19    15    16   ar
    20    16    17   ar
    21    17    18   ar
    22    18    19    1
    23    18    20   ar
    24    20    21   ar
    25     6     2    1
    26    14     8   ar
    27    21    15   ar
    28    26    22   ar
    29     3     7    1
@<TRIPOS>MOLECULE
*****
 26 29 0 0 0
SMALL
GASTEIGER

@<TRIPOS>ATOM
      1 C         137.5810  140.6785  163.1191 C.3     1  UNL1        0.0559
      2 C         138.7857  141.3022  162.4789 C.3     1  UNL1        0.2097
      3 N         138.7707  142.3419  161.3978 N.pl3   1  UNL1       -0.2165
      4 C         140.1925  142.6780  161.0582 C.2     1  UNL1        0.3402
      5 N         141.0863  141.8461  161.9294 N.2     1  UNL1       -0.0595
      6 C         140.2168  140.9958  162.8075 C.3     1  UNL1        0.2515
      7 H         137.9684  142.7347  160.9838 H       1  UNL1        0.2923
      8 C         139.6205  140.0396  163.7976 C.ar    1  UNL1        0.0297
      9 C         139.1997  140.5279  165.1520 C.ar    1  UNL1        0.0025
     10 C         138.6034  139.5717  166.1420 C.ar    1  UNL1        0.0295
     11 C         138.4279  138.1273  165.7775 C.ar    1  UNL1        0.1401
     12 F         137.8316  137.1711  166.7676 F       1  UNL1       -0.2042
     13 C         138.8487  137.6390  164.4231 C.ar    1  UNL1        0.0295
     14 C         139.4450  138.5952  163.4331 C.ar    1  UNL1        0.0025
     15 C         141.5233  140.4895  163.3430 C.ar    1  UNL1        0.0488
     16 C         142.0759  141.0460  164.6217 C.ar    1  UNL1        0.0057
     17 C         143.3824  140.5397  165.1573 C.ar    1  UNL1        0.0495
     18 C         144.1362  139.4769  164.4142 C.ar    1  UNL1        0.2223
     19 F         145.4426  138.9707  164.9498 F       1  UNL1       -0.1832
     20 N         143.5836  138.9204  163.1356 N.ar    1  UNL1       -0.2166
     21 C         142.2771  139.4267  162.6000 C.ar    1  UNL1        0.1014
     22 C         140.6417  143.6716  160.0282 C.ar    1  UNL1        0.1927
     23 N         139.9060  144.9140  159.6218 N.ar    1  UNL1       -0.2297
     24 C         140.7151  145.6076  158.5662 C.ar    1  UNL1        0.1067
     25 C         141.9509  144.7938  158.3201 C.ar    1  UNL1        0.0577
     26 S         141.9056  143.5974  159.2237 S.2     1  UNL1       -0.0586
@<TRIPOS>BOND
     1     2     1    1
     2     2     3    1
     3     3     4    1
     4     4    22    1
     5    22    23   ar
     6    23    24   ar
     7    24    25   ar
     8    25    26   ar
     9     4     5    2
    10     5     6    1
    11     6     8    1
    12     8     9   ar
    13     9    10   ar
    14    10    11   ar
    15    11    12    1
    16    11    13   ar
    17    13    14   ar
    18     6    15    1
    19    15    16   ar
    20    16    17   ar
    21    17    18   ar
    22    18    19    1
    23    18    20   ar
    24    20    21   ar
    25     6     2    1
    26    14     8   ar
    27    21    15   ar
    28    26    22   ar
    29     3     7    1
@<TRIPOS>MOLECULE
*****
 26 29 0 0 0
SMALL
GASTEIGER

@<TRIPOS>ATOM
      1 C         141.8382  137.7229  163.4799 C.3     1  UNL1        0.0559
      2 C         141.7055  138.7455  164.5693 C.3     1  UNL1        0.2097
      3 N         142.3819  138.7010  165.9074 N.pl3   1  UNL1       -0.2165
      4 C         141.9675  139.9201  166.6770 C.2     1  UNL1        0.3402
      5 N         141.0351  140.7179  165.8145 N.2     1  UNL1       -0.0595
      6 C         140.8731  139.9920  164.5119 C.3     1  UNL1        0.2515
      7 H         142.9909  137.9956  166.2248 H       1  UNL1        0.2923
      8 C         140.5217  139.5054  163.1372 C.ar    1  UNL1        0.0297
      9 C         141.3274  139.9540  161.9541 C.ar    1  UNL1        0.0025
     10 C         140.9760  139.4675  160.5795 C.ar    1  UNL1        0.0295
     11 C         139.8189  138.5323  160.3879 C.ar    1  UNL1        0.1401
     12 F         139.4676  138.0457  159.0131 F       1  UNL1       -0.2042
     13 C         139.0133  138.0837  161.5709 C.ar    1  UNL1        0.0295
     14 C         139.3647  138.5703  162.9456 C.ar    1  UNL1        0.0025
     15 C         139.9672  141.1368  164.1671 C.ar    1  UNL1        0.0488
     16 C         138.4815  140.9861  164.3076 C.ar    1  UNL1        0.0057
     17 C         137.5755  142.1309  163.9627 C.ar    1  UNL1        0.0495
     18 C         138.1555  143.4264  163.4775 C.ar    1  UNL1        0.2223
     19 F         137.2496  144.5711  163.1327 F       1  UNL1       -0.1832
     20 N         139.6412  143.5771  163.3371 N.ar    1  UNL1       -0.2166
     21 C         140.5472  142.4323  163.6819 C.ar    1  UNL1        0.1014
     22 C         142.4083  140.2783  168.0652 C.ar    1  UNL1        0.1927
     23 N         142.6416  139.3161  169.1921 N.ar    1  UNL1       -0.2297
     24 C         143.0707  140.1048  170.3937 C.ar    1  UNL1        0.1067
     25 C         143.1025  141.5544  170.0096 C.ar    1  UNL1        0.0577
     26 S         142.6931  141.6617  168.5705 S.2     1  UNL1       -0.0586
@<TRIPOS>BOND
     1     2     1    1
     2     2     3    1
     3     3     4    1
     4     4    22    1
     5    22    23   ar
     6    23    24   ar
     7    24    25   ar
     8    25    26   ar
     9     4     5    2
    10     5     6    1
    11     6     8    1
    12     8     9   ar
    13     9    10   ar
    14    10    11   ar
    15    11    12    1
    16    11    13   ar
    17    13    14   ar
    18     6    15    1
    19    15    16   ar
    20    16    17   ar
    21    17    18   ar
    22    18    19    1
    23    18    20   ar
    24    20    21   ar
    25     6     2    1
    26    14     8   ar
    27    21    15   ar
    28    26    22   ar
    29     3     7    1
@<TRIPOS>MOLECULE
*****
 26 29 0 0 0
SMALL
GASTEIGER

@<TRIPOS>ATOM
      1 C         141.5358  137.4897  164.6886 C.3     1  UNL1        0.0559
      2 C         141.9830  138.2538  163.4777 C.3     1  UNL1        0.2097
      3 N         142.0406  137.7271  162.0743 N.pl3   1  UNL1       -0.2165
      4 C         142.5443  138.8265  161.1870 C.2     1  UNL1        0.3402
      5 N         142.7980  140.0327  162.0417 N.2     1  UNL1       -0.0595
      6 C         142.4511  139.6788  163.4575 C.3     1  UNL1        0.2515
      7 H         141.7916  136.8192  161.7863 H       1  UNL1        0.2923
      8 C         142.1906  139.6202  164.9336 C.ar    1  UNL1        0.0297
      9 C         143.2493  139.1036  165.8621 C.ar    1  UNL1        0.0025
     10 C         142.9889  139.0450  167.3381 C.ar    1  UNL1        0.0295
     11 C         141.6696  139.5031  167.8856 C.ar    1  UNL1        0.1401
     12 F         141.4092  139.4446  169.3617 F       1  UNL1       -0.2042
     13 C         140.6109  140.0197  166.9571 C.ar    1  UNL1        0.0295
     14 C         140.8714  140.0783  165.4811 C.ar    1  UNL1        0.0025
     15 C         142.8647  141.0915  163.7459 C.ar    1  UNL1        0.0488
     16 C         144.2192  141.3728  164.3256 C.ar    1  UNL1        0.0057
     17 C         144.6328  142.7856  164.6141 C.ar    1  UNL1        0.0495
     18 C         143.6919  143.9169  164.3228 C.ar    1  UNL1        0.2223
     19 F         144.1056  145.3295  164.6112 F       1  UNL1       -0.1832
     20 N         142.3374  143.6355  163.7431 N.ar    1  UNL1       -0.2166
     21 C         141.9238  142.2228  163.4546 C.ar    1  UNL1        0.1014
     22 C         142.7570  138.7357  159.7049 C.ar    1  UNL1        0.1927
     23 N         142.5800  137.5073  158.8624 N.ar    1  UNL1       -0.2297
     24 C         142.8976  137.8697  157.4419 C.ar    1  UNL1        0.1067
     25 C         143.2710  139.3220  157.4065 C.ar    1  UNL1        0.0577
     26 S         143.1841  139.8573  158.8050 S.2     1  UNL1       -0.0586
@<TRIPOS>BOND
     1     2     1    1
     2     2     3    1
     3     3     4    1
     4     4    22    1
     5    22    23   ar
     6    23    24   ar
     7    24    25   ar
     8    25    26   ar
     9     4     5    2
    10     5     6    1
    11     6     8    1
    12     8     9   ar
    13     9    10   ar
    14    10    11   ar
    15    11    12    1
    16    11    13   ar
    17    13    14   ar
    18     6    15    1
    19    15    16   ar
    20    16    17   ar
    21    17    18   ar
    22    18    19    1
    23    18    20   ar
    24    20    21   ar
    25     6     2    1
    26    14     8   ar
    27    21    15   ar
    28    26    22   ar
    29     3     7    1
