@<TRIPOS>MOLECULE
*****
 34 37 0 0 0
SMALL
GASTEIGER

@<TRIPOS>ATOM
      1 C         141.6909  143.7015  162.0447 C.3     1  UNL1        0.1751
      2 C         141.9647  143.9398  160.5893 C.ar    1  UNL1        0.0089
      3 C         142.8833  143.2615  159.6166 C.ar    1  UNL1       -0.0021
      4 C         142.9453  143.7290  158.1927 C.ar    1  UNL1       -0.0003
      5 C         142.0888  144.8748  157.7415 C.ar    1  UNL1        0.0001
      6 C         141.1702  145.5530  158.7141 C.ar    1  UNL1        0.0043
      7 C         141.1082  145.0855  160.1380 C.ar    1  UNL1        0.0516
      8 C         140.3050  145.5553  161.3146 C.2     1  UNL1        0.2493
      9 O         139.3155  146.6826  161.3130 O.2     1  UNL1       -0.2699
     10 N         140.6652  144.6999  162.4930 N.am    1  UNL1       -0.2657
     11 O         141.8785  141.2228  162.8002 O.2     1  UNL1       -0.2729
     12 C         142.3305  142.6494  162.9014 C.2     1  UNL1        0.2451
     13 N         143.4224  143.0239  163.8594 N.am    1  UNL1       -0.2988
     14 H         143.7191  143.9603  163.9259 H       1  UNL1        0.1498
     15 C         144.0620  141.9719  164.7161 C.3     1  UNL1        0.1164
     16 C         143.3204  141.4098  165.8926 C.ar    1  UNL1       -0.0024
     17 C         142.8659  142.3182  166.9964 C.ar    1  UNL1        0.0005
     18 C         142.1243  141.7560  168.1728 C.ar    1  UNL1        0.0369
     19 C         141.8372  140.2855  168.2456 C.ar    1  UNL1        0.1468
     20 C         142.2918  139.3772  167.1418 C.ar    1  UNL1        0.0369
     21 C         143.0334  139.9393  165.9653 C.ar    1  UNL1        0.0005
     22 O         141.0956  139.7235  169.4220 O.3     1  UNL1       -0.4045
     23 C         139.7494  140.2720  169.7918 C.3     1  UNL1        0.5753
     24 F         138.4031  140.8205  170.1615 F       1  UNL1       -0.1328
     25 F         140.2957  140.7211  171.1146 F       1  UNL1       -0.1328
     26 F         139.2031  139.8229  168.4690 F       1  UNL1       -0.1328
     27 C         140.0990  144.8216  163.8767 C.3     1  UNL1        0.1007
     28 C         138.8006  144.1522  164.2173 C.3     1  UNL1        0.0673
     29 C         138.7003  142.6557  164.1966 C.ar    1  UNL1        0.0607
     30 C         139.4179  141.8415  165.2321 C.ar    1  UNL1        0.0148
     31 C         139.3176  140.3450  165.2114 C.ar    1  UNL1        0.0028
     32 C         138.4996  139.6627  164.1552 C.ar    1  UNL1        0.0207
     33 C         137.7820  140.4769  163.1198 C.ar    1  UNL1        0.0984
     34 N         137.8824  141.9734  163.1405 N.ar    1  UNL1       -0.2481
@<TRIPOS>BOND
     1    11    12    2
     2    12    13   am
     3    13    15    1
     4    15    16    1
     5    16    17   ar
     6    17    18   ar
     7    18    19   ar
     8    19    22    1
     9    22    23    1
    10    23    24    1
    11    23    25    1
    12    23    26    1
    13    19    20   ar
    14    20    21   ar
    15    12     1    1
    16     1     2    1
    17     2     3   ar
    18     3     4   ar
    19     4     5   ar
    20     5     6   ar
    21     6     7   ar
    22     7     8    1
    23     8     9    2
    24     8    10   am
    25    10    27    1
    26    27    28    1
    27    28    29    1
    28    29    30   ar
    29    30    31   ar
    30    31    32   ar
    31    32    33   ar
    32    33    34   ar
    33    21    16   ar
    34    10     1    1
    35    34    29   ar
    36     7     2   ar
    37    13    14    1
@<TRIPOS>MOLECULE
*****
 34 37 0 0 0
SMALL
GASTEIGER

@<TRIPOS>ATOM
      1 C         140.9841  141.1425  166.6423 C.3     1  UNL1        0.1751
      2 C         141.0859  141.1442  168.1388 C.ar    1  UNL1        0.0089
      3 C         140.3843  141.9500  169.1916 C.ar    1  UNL1       -0.0021
      4 C         140.6992  141.7266  170.6410 C.ar    1  UNL1       -0.0003
      5 C         141.7157  140.6973  171.0376 C.ar    1  UNL1        0.0001
      6 C         142.4172  139.8914  169.9849 C.ar    1  UNL1        0.0043
      7 C         142.1024  140.1149  168.5354 C.ar    1  UNL1        0.0516
      8 C         142.6288  139.4771  167.2840 C.2     1  UNL1        0.2493
      9 O         143.6645  138.3943  167.2148 O.2     1  UNL1       -0.2699
     10 N         141.9377  140.1122  166.1139 N.am    1  UNL1       -0.2657
     11 O         138.7425  141.5140  165.3824 O.2     1  UNL1       -0.2729
     12 C         140.0864  142.0176  165.8186 C.2     1  UNL1        0.2451
     13 N         140.5325  143.3964  165.4312 N.am    1  UNL1       -0.2988
     14 H         141.4146  143.7269  165.7175 H       1  UNL1        0.1498
     15 C         139.6348  144.2714  164.6076 C.3     1  UNL1        0.1164
     16 C         139.8243  144.3529  163.1219 C.ar    1  UNL1       -0.0024
     17 C         139.7340  143.1114  162.2850 C.ar    1  UNL1        0.0005
     18 C         139.9235  143.1930  160.7993 C.ar    1  UNL1        0.0369
     19 C         140.2034  144.5161  160.1503 C.ar    1  UNL1        0.1468
     20 C         140.2937  145.7577  160.9872 C.ar    1  UNL1        0.0369
     21 C         140.1042  145.6761  162.4730 C.ar    1  UNL1        0.0005
     22 O         140.3929  144.5976  158.6646 O.3     1  UNL1       -0.4045
     23 C         141.4631  145.4791  158.0922 C.3     1  UNL1        0.5753
     24 F         142.5333  146.3607  157.5199 F       1  UNL1       -0.1328
     25 F         140.4145  146.4297  157.5955 F       1  UNL1       -0.1328
     26 F         142.5117  144.5286  158.5890 F       1  UNL1       -0.1328
     27 C         142.1609  139.7760  164.6693 C.3     1  UNL1        0.1007
     28 C         143.3731  140.2979  163.9564 C.3     1  UNL1        0.0673
     29 C         143.4733  141.7553  163.6158 C.ar    1  UNL1        0.0607
     30 C         143.3616  142.2012  162.1879 C.ar    1  UNL1        0.0148
     31 C         143.4618  143.6586  161.8473 C.ar    1  UNL1        0.0028
     32 C         143.6737  144.6701  162.9346 C.ar    1  UNL1        0.0207
     33 C         143.7853  144.2241  164.3624 C.ar    1  UNL1        0.0984
     34 N         143.6851  142.7668  164.7030 N.ar    1  UNL1       -0.2481
@<TRIPOS>BOND
     1    11    12    2
     2    12    13   am
     3    13    15    1
     4    15    16    1
     5    16    17   ar
     6    17    18   ar
     7    18    19   ar
     8    19    22    1
     9    22    23    1
    10    23    24    1
    11    23    25    1
    12    23    26    1
    13    19    20   ar
    14    20    21   ar
    15    12     1    1
    16     1     2    1
    17     2     3   ar
    18     3     4   ar
    19     4     5   ar
    20     5     6   ar
    21     6     7   ar
    22     7     8    1
    23     8     9    2
    24     8    10   am
    25    10    27    1
    26    27    28    1
    27    28    29    1
    28    29    30   ar
    29    30    31   ar
    30    31    32   ar
    31    32    33   ar
    32    33    34   ar
    33    21    16   ar
    34    10     1    1
    35    34    29   ar
    36     7     2   ar
    37    13    14    1
@<TRIPOS>MOLECULE
*****
 34 37 0 0 0
SMALL
GASTEIGER

@<TRIPOS>ATOM
      1 C         139.4733  143.4107  161.1918 C.3     1  UNL1        0.1751
      2 C         139.1319  143.0120  159.7866 C.ar    1  UNL1        0.0089
      3 C         138.1281  142.0443  159.2336 C.ar    1  UNL1       -0.0021
      4 C         138.0111  141.8506  157.7508 C.ar    1  UNL1       -0.0003
      5 C         138.8979  142.6246  156.8210 C.ar    1  UNL1        0.0001
      6 C         139.9017  143.5923  157.3740 C.ar    1  UNL1        0.0043
      7 C         140.0187  143.7860  158.8568 C.ar    1  UNL1        0.0516
      8 C         140.9082  144.6629  159.6874 C.2     1  UNL1        0.2493
      9 O         141.9516  145.6063  159.1663 O.2     1  UNL1       -0.2699
     10 N         140.5712  144.4310  161.1305 N.am    1  UNL1       -0.2657
     11 O         137.7326  143.6584  163.1044 O.2     1  UNL1       -0.2729
     12 C         138.8299  142.8818  162.4393 C.2     1  UNL1        0.2451
     13 N         139.2839  141.5760  163.0217 N.am    1  UNL1       -0.2988
     14 H         140.0041  141.0662  162.5852 H       1  UNL1        0.1498
     15 C         138.6404  141.0471  164.2692 C.3     1  UNL1        0.1164
     16 C         139.3301  141.2018  165.5922 C.ar    1  UNL1       -0.0024
     17 C         139.4566  140.0254  166.5142 C.ar    1  UNL1        0.0005
     18 C         140.1463  140.1802  167.8372 C.ar    1  UNL1        0.0369
     19 C         140.7096  141.5113  168.2383 C.ar    1  UNL1        0.1468
     20 C         140.5831  142.6877  167.3163 C.ar    1  UNL1        0.0369
     21 C         139.8934  142.5330  165.9932 C.ar    1  UNL1        0.0005
     22 O         141.3993  141.6660  169.5613 O.3     1  UNL1       -0.4045
     23 C         142.8329  142.1042  169.6131 C.3     1  UNL1        0.5753
     24 F         144.2665  142.5425  169.6649 F       1  UNL1       -0.1328
     25 F         142.3995  143.4689  170.0601 F       1  UNL1       -0.1328
     26 F         143.2662  140.7396  169.1661 F       1  UNL1       -0.1328
     27 C         141.2183  145.1015  162.3059 C.3     1  UNL1        0.1007
     28 C         142.6130  144.7254  162.7097 C.3     1  UNL1        0.0673
     29 C         142.8451  143.5191  163.5705 C.ar    1  UNL1        0.0607
     30 C         143.5466  143.6621  164.8887 C.ar    1  UNL1        0.0148
     31 C         143.7787  142.4559  165.7495 C.ar    1  UNL1        0.0028
     32 C         143.3092  141.1066  165.2922 C.ar    1  UNL1        0.0207
     33 C         142.6078  140.9636  163.9741 C.ar    1  UNL1        0.0984
     34 N         142.3757  142.1699  163.1132 N.ar    1  UNL1       -0.2481
@<TRIPOS>BOND
     1    11    12    2
     2    12    13   am
     3    13    15    1
     4    15    16    1
     5    16    17   ar
     6    17    18   ar
     7    18    19   ar
     8    19    22    1
     9    22    23    1
    10    23    24    1
    11    23    25    1
    12    23    26    1
    13    19    20   ar
    14    20    21   ar
    15    12     1    1
    16     1     2    1
    17     2     3   ar
    18     3     4   ar
    19     4     5   ar
    20     5     6   ar
    21     6     7   ar
    22     7     8    1
    23     8     9    2
    24     8    10   am
    25    10    27    1
    26    27    28    1
    27    28    29    1
    28    29    30   ar
    29    30    31   ar
    30    31    32   ar
    31    32    33   ar
    32    33    34   ar
    33    21    16   ar
    34    10     1    1
    35    34    29   ar
    36     7     2   ar
    37    13    14    1
@<TRIPOS>MOLECULE
*****
 34 37 0 0 0
SMALL
GASTEIGER

@<TRIPOS>ATOM
      1 C         140.6655  138.7479  161.7181 C.3     1  UNL1        0.1751
      2 C         141.0530  138.5430  160.2836 C.ar    1  UNL1        0.0089
      3 C         142.3459  138.1354  159.6416 C.ar    1  UNL1       -0.0021
      4 C         142.4358  138.0106  158.1495 C.ar    1  UNL1       -0.0003
      5 C         141.2327  138.2936  157.2995 C.ar    1  UNL1        0.0001
      6 C         139.9398  138.7012  157.9414 C.ar    1  UNL1        0.0043
      7 C         139.8500  138.8260  159.4335 C.ar    1  UNL1        0.0516
      8 C         138.7189  139.2057  160.3427 C.2     1  UNL1        0.2493
      9 O         137.3281  139.5698  159.9149 O.2     1  UNL1       -0.2699
     10 N         139.2229  139.1575  161.7546 N.am    1  UNL1       -0.2657
     11 O         141.4582  137.3385  163.7516 O.2     1  UNL1       -0.2729
     12 C         141.5629  138.5738  162.9073 C.2     1  UNL1        0.2451
     13 N         142.5653  139.6352  163.2523 N.am    1  UNL1       -0.2988
     14 H         142.6341  140.4461  162.6982 H       1  UNL1        0.1498
     15 C         143.4627  139.4611  164.4415 C.3     1  UNL1        0.1164
     16 C         143.0936  140.0807  165.7567 C.ar    1  UNL1       -0.0024
     17 C         143.3551  141.5378  165.9991 C.ar    1  UNL1        0.0005
     18 C         142.9859  142.1573  167.3143 C.ar    1  UNL1        0.0369
     19 C         142.3553  141.3199  168.3872 C.ar    1  UNL1        0.1468
     20 C         142.0938  139.8629  168.1449 C.ar    1  UNL1        0.0369
     21 C         142.4630  139.2433  166.8296 C.ar    1  UNL1        0.0005
     22 O         141.9861  141.9396  169.7024 O.3     1  UNL1       -0.4045
     23 C         141.1992  143.2161  169.7355 C.3     1  UNL1        0.5753
     24 F         140.4123  144.4927  169.7687 F       1  UNL1       -0.1328
     25 F         140.0418  142.5196  169.0834 F       1  UNL1       -0.1328
     26 F         142.3565  143.9127  170.3877 F       1  UNL1       -0.1328
     27 C         138.4246  139.4649  162.9868 C.3     1  UNL1        0.1007
     28 C         137.6724  140.7585  163.0897 C.3     1  UNL1        0.0673
     29 C         138.2213  141.8812  163.9194 C.ar    1  UNL1        0.0607
     30 C         139.2814  141.6073  164.9447 C.ar    1  UNL1        0.0148
     31 C         139.8303  142.7300  165.7743 C.ar    1  UNL1        0.0028
     32 C         139.3190  144.1266  165.5787 C.ar    1  UNL1        0.0207
     33 C         138.2589  144.4004  164.5535 C.ar    1  UNL1        0.0984
     34 N         137.7100  143.2778  163.7238 N.ar    1  UNL1       -0.2481
@<TRIPOS>BOND
     1    11    12    2
     2    12    13   am
     3    13    15    1
     4    15    16    1
     5    16    17   ar
     6    17    18   ar
     7    18    19   ar
     8    19    22    1
     9    22    23    1
    10    23    24    1
    11    23    25    1
    12    23    26    1
    13    19    20   ar
    14    20    21   ar
    15    12     1    1
    16     1     2    1
    17     2     3   ar
    18     3     4   ar
    19     4     5   ar
    20     5     6   ar
    21     6     7   ar
    22     7     8    1
    23     8     9    2
    24     8    10   am
    25    10    27    1
    26    27    28    1
    27    28    29    1
    28    29    30   ar
    29    30    31   ar
    30    31    32   ar
    31    32    33   ar
    32    33    34   ar
    33    21    16   ar
    34    10     1    1
    35    34    29   ar
    36     7     2   ar
    37    13    14    1
@<TRIPOS>MOLECULE
*****
 34 37 0 0 0
SMALL
GASTEIGER

@<TRIPOS>ATOM
      1 C         141.2340  140.6878  166.6635 C.3     1  UNL1        0.1751
      2 C         141.0332  141.4474  167.9413 C.ar    1  UNL1        0.0089
      3 C         141.7929  142.5802  168.5655 C.ar    1  UNL1       -0.0021
      4 C         141.3463  143.1484  169.8799 C.ar    1  UNL1       -0.0003
      5 C         140.1400  142.5840  170.5700 C.ar    1  UNL1        0.0001
      6 C         139.3803  141.4513  169.9458 C.ar    1  UNL1        0.0043
      7 C         139.8269  140.8830  168.6314 C.ar    1  UNL1        0.0516
      8 C         139.2822  139.7746  167.7801 C.2     1  UNL1        0.2493
      9 O         138.0790  138.9343  168.0906 O.2     1  UNL1       -0.2699
     10 N         140.1518  139.6539  166.5639 N.am    1  UNL1       -0.2657
     11 O         142.3365  142.1785  164.8436 O.2     1  UNL1       -0.2729
     12 C         142.3254  140.9212  165.6613 C.2     1  UNL1        0.2451
     13 N         143.4057  139.8970  165.4768 N.am    1  UNL1       -0.2988
     14 H         143.3985  139.0716  166.0135 H       1  UNL1        0.1498
     15 C         144.4972  140.1303  164.4747 C.3     1  UNL1        0.1164
     16 C         144.2545  139.8464  163.0219 C.ar    1  UNL1       -0.0024
     17 C         143.8375  138.4732  162.5855 C.ar    1  UNL1        0.0005
     18 C         143.5949  138.1894  161.1327 C.ar    1  UNL1        0.0369
     19 C         143.7693  139.2787  160.1163 C.ar    1  UNL1        0.1468
     20 C         144.1863  140.6519  160.5527 C.ar    1  UNL1        0.0369
     21 C         144.4289  140.9357  162.0056 C.ar    1  UNL1        0.0005
     22 O         143.5267  138.9948  158.6636 O.3     1  UNL1       -0.4045
     23 C         142.2573  138.3217  158.2327 C.3     1  UNL1        0.5753
     24 F         140.9880  137.6485  157.8018 F       1  UNL1       -0.1328
     25 F         143.0543  137.1952  157.6446 F       1  UNL1       -0.1328
     26 F         141.4603  139.4481  158.8207 F       1  UNL1       -0.1328
     27 C         139.9710  138.6718  165.4446 C.3     1  UNL1        0.1007
     28 C         139.1504  139.0440  164.2455 C.3     1  UNL1        0.0673
     29 C         139.4982  140.2665  163.4488 C.ar    1  UNL1        0.0607
     30 C         140.4315  140.1591  162.2793 C.ar    1  UNL1        0.0148
     31 C         140.7792  141.3816  161.4827 C.ar    1  UNL1        0.0028
     32 C         140.1937  142.7114  161.8555 C.ar    1  UNL1        0.0207
     33 C         139.2605  142.8187  163.0249 C.ar    1  UNL1        0.0984
     34 N         138.9127  141.5962  163.8215 N.ar    1  UNL1       -0.2481
@<TRIPOS>BOND
     1    11    12    2
     2    12    13   am
     3    13    15    1
     4    15    16    1
     5    16    17   ar
     6    17    18   ar
     7    18    19   ar
     8    19    22    1
     9    22    23    1
    10    23    24    1
    11    23    25    1
    12    23    26    1
    13    19    20   ar
    14    20    21   ar
    15    12     1    1
    16     1     2    1
    17     2     3   ar
    18     3     4   ar
    19     4     5   ar
    20     5     6   ar
    21     6     7   ar
    22     7     8    1
    23     8     9    2
    24     8    10   am
    25    10    27    1
    26    27    28    1
    27    28    29    1
    28    29    30   ar
    29    30    31   ar
    30    31    32   ar
    31    32    33   ar
    32    33    34   ar
    33    21    16   ar
    34    10     1    1
    35    34    29   ar
    36     7     2   ar
    37    13    14    1
@<TRIPOS>MOLECULE
*****
 34 37 0 0 0
SMALL
GASTEIGER

@<TRIPOS>ATOM
      1 C         140.9521  139.9350  160.4368 C.3     1  UNL1        0.1751
      2 C         141.2273  139.0052  159.2923 C.ar    1  UNL1        0.0089
      3 C         142.4407  138.2073  158.9168 C.ar    1  UNL1       -0.0021
      4 C         142.4219  137.3472  157.6881 C.ar    1  UNL1       -0.0003
      5 C         141.1897  137.2848  156.8350 C.ar    1  UNL1        0.0001
      6 C         139.9763  138.0827  157.2105 C.ar    1  UNL1        0.0043
      7 C         139.9951  138.9429  158.4391 C.ar    1  UNL1        0.0516
      8 C         138.9584  139.8342  159.0564 C.2     1  UNL1        0.2493
      9 O         137.5734  140.0707  158.5312 O.2     1  UNL1       -0.2699
     10 N         139.5498  140.4473  160.2910 N.am    1  UNL1       -0.2657
     11 O         143.0899  141.1708  161.2446 O.2     1  UNL1       -0.2729
     12 C         141.9108  140.2900  161.5344 C.2     1  UNL1        0.2451
     13 N         141.6905  139.7643  162.9220 N.am    1  UNL1       -0.2988
     14 H         140.9166  139.1862  163.1122 H       1  UNL1        0.1498
     15 C         142.6492  140.1194  164.0196 C.3     1  UNL1        0.1164
     16 C         142.1312  140.4786  165.3806 C.ar    1  UNL1       -0.0024
     17 C         142.3442  139.5446  166.5348 C.ar    1  UNL1        0.0005
     18 C         141.8261  139.9039  167.8959 C.ar    1  UNL1        0.0369
     19 C         141.0952  141.1973  168.1028 C.ar    1  UNL1        0.1468
     20 C         140.8822  142.1314  166.9486 C.ar    1  UNL1        0.0369
     21 C         141.4003  141.7720  165.5875 C.ar    1  UNL1        0.0005
     22 O         140.5772  141.5566  169.4639 O.3     1  UNL1       -0.4045
     23 C         139.9182  140.5123  170.3154 C.3     1  UNL1        0.5753
     24 F         139.2591  139.4679  171.1668 F       1  UNL1       -0.1328
     25 F         140.9405  140.7422  171.3887 F       1  UNL1       -0.1328
     26 F         138.8958  140.2823  169.2421 F       1  UNL1       -0.1328
     27 C         138.8601  141.4046  161.2172 C.3     1  UNL1        0.1007
     28 C         137.7947  140.9098  162.1499 C.3     1  UNL1        0.0673
     29 C         138.1593  140.0166  163.2986 C.ar    1  UNL1        0.0607
     30 C         138.0102  140.5086  164.7078 C.ar    1  UNL1        0.0148
     31 C         138.3747  139.6155  165.8565 C.ar    1  UNL1        0.0028
     32 C         138.8883  138.2303  165.5959 C.ar    1  UNL1        0.0207
     33 C         139.0373  137.7385  164.1868 C.ar    1  UNL1        0.0984
     34 N         138.6728  138.6316  163.0381 N.ar    1  UNL1       -0.2481
@<TRIPOS>BOND
     1    11    12    2
     2    12    13   am
     3    13    15    1
     4    15    16    1
     5    16    17   ar
     6    17    18   ar
     7    18    19   ar
     8    19    22    1
     9    22    23    1
    10    23    24    1
    11    23    25    1
    12    23    26    1
    13    19    20   ar
    14    20    21   ar
    15    12     1    1
    16     1     2    1
    17     2     3   ar
    18     3     4   ar
    19     4     5   ar
    20     5     6   ar
    21     6     7   ar
    22     7     8    1
    23     8     9    2
    24     8    10   am
    25    10    27    1
    26    27    28    1
    27    28    29    1
    28    29    30   ar
    29    30    31   ar
    30    31    32   ar
    31    32    33   ar
    32    33    34   ar
    33    21    16   ar
    34    10     1    1
    35    34    29   ar
    36     7     2   ar
    37    13    14    1
@<TRIPOS>MOLECULE
*****
 34 37 0 0 0
SMALL
GASTEIGER

@<TRIPOS>ATOM
      1 C         143.7136  139.9195  161.5831 C.3     1  UNL1        0.1751
      2 C         143.3744  139.3454  160.2394 C.ar    1  UNL1        0.0089
      3 C         142.8140  138.0162  159.8283 C.ar    1  UNL1       -0.0021
      4 C         142.5756  137.7192  158.3775 C.ar    1  UNL1       -0.0003
      5 C         142.8974  138.7515  157.3378 C.ar    1  UNL1        0.0001
      6 C         143.4578  140.0807  157.7490 C.ar    1  UNL1        0.0043
      7 C         143.6962  140.3777  159.1998 C.ar    1  UNL1        0.0516
      8 C         144.2344  141.5896  159.9010 C.2     1  UNL1        0.2493
      9 O         144.6830  142.8615  159.2444 O.2     1  UNL1       -0.2699
     10 N         144.2450  141.3064  161.3740 N.am    1  UNL1       -0.2657
     11 O         144.7411  139.0098  163.7892 O.2     1  UNL1       -0.2729
     12 C         143.5499  139.2278  162.9041 C.2     1  UNL1        0.2451
     13 N         142.1950  138.7542  163.3400 N.am    1  UNL1       -0.2988
     14 H         141.4131  138.8973  162.7591 H       1  UNL1        0.1498
     15 C         142.0314  138.0626  164.6609 C.3     1  UNL1        0.1164
     16 C         141.7666  138.8654  165.9000 C.ar    1  UNL1       -0.0024
     17 C         142.8861  139.1672  166.8517 C.ar    1  UNL1        0.0005
     18 C         142.6213  139.9700  168.0908 C.ar    1  UNL1        0.0369
     19 C         141.2370  140.4711  168.3783 C.ar    1  UNL1        0.1468
     20 C         140.1175  140.1694  167.4266 C.ar    1  UNL1        0.0369
     21 C         140.3823  139.3665  166.1874 C.ar    1  UNL1        0.0005
     22 O         140.9723  141.2739  169.6174 O.3     1  UNL1       -0.4045
     23 C         140.5798  142.7174  169.5063 C.3     1  UNL1        0.5753
     24 F         140.1873  144.1608  169.3952 F       1  UNL1       -0.1328
     25 F         141.8558  143.0079  168.7733 F       1  UNL1       -0.1328
     26 F         139.3038  142.4268  170.2393 F       1  UNL1       -0.1328
     27 C         144.7063  142.2454  162.4490 C.3     1  UNL1        0.1007
     28 C         144.0164  143.5635  162.6402 C.3     1  UNL1        0.0673
     29 C         142.7626  143.6419  163.4599 C.ar    1  UNL1        0.0607
     30 C         142.6116  142.7870  164.6831 C.ar    1  UNL1        0.0148
     31 C         141.3578  142.8654  165.5028 C.ar    1  UNL1        0.0028
     32 C         140.2551  143.7988  165.0992 C.ar    1  UNL1        0.0207
     33 C         140.4062  144.6537  163.8760 C.ar    1  UNL1        0.0984
     34 N         141.6599  144.5753  163.0563 N.ar    1  UNL1       -0.2481
@<TRIPOS>BOND
     1    11    12    2
     2    12    13   am
     3    13    15    1
     4    15    16    1
     5    16    17   ar
     6    17    18   ar
     7    18    19   ar
     8    19    22    1
     9    22    23    1
    10    23    24    1
    11    23    25    1
    12    23    26    1
    13    19    20   ar
    14    20    21   ar
    15    12     1    1
    16     1     2    1
    17     2     3   ar
    18     3     4   ar
    19     4     5   ar
    20     5     6   ar
    21     6     7   ar
    22     7     8    1
    23     8     9    2
    24     8    10   am
    25    10    27    1
    26    27    28    1
    27    28    29    1
    28    29    30   ar
    29    30    31   ar
    30    31    32   ar
    31    32    33   ar
    32    33    34   ar
    33    21    16   ar
    34    10     1    1
    35    34    29   ar
    36     7     2   ar
    37    13    14    1
@<TRIPOS>MOLECULE
*****
 34 37 0 0 0
SMALL
GASTEIGER

@<TRIPOS>ATOM
      1 C         140.6715  140.7694  166.4965 C.3     1  UNL1        0.1751
      2 C         140.6393  140.7722  167.9962 C.ar    1  UNL1        0.0089
      3 C         139.6869  140.1611  168.9807 C.ar    1  UNL1       -0.0021
      4 C         139.9157  140.3354  170.4528 C.ar    1  UNL1       -0.0003
      5 C         141.0970  141.1209  170.9404 C.ar    1  UNL1        0.0001
      6 C         142.0494  141.7320  169.9558 C.ar    1  UNL1        0.0043
      7 C         141.8205  141.5577  168.4837 C.ar    1  UNL1        0.0516
      8 C         142.5828  142.0403  167.2854 C.2     1  UNL1        0.2493
      9 O         143.8353  142.8652  167.3108 O.2     1  UNL1       -0.2699
     10 N         141.8727  141.5531  166.0572 N.am    1  UNL1       -0.2657
     11 O         138.3533  140.7514  165.3237 O.2     1  UNL1       -0.2729
     12 C         139.6772  140.1003  165.5945 C.2     1  UNL1        0.2451
     13 N         140.0067  138.7800  164.9633 N.am    1  UNL1       -0.2988
     14 H         140.8756  138.3526  165.1410 H       1  UNL1        0.1498
     15 C         139.0124  138.1109  164.0613 C.3     1  UNL1        0.1164
     16 C         138.8776  138.5535  162.6345 C.ar    1  UNL1       -0.0024
     17 C         139.8426  138.0546  161.6001 C.ar    1  UNL1        0.0005
     18 C         139.7077  138.4972  160.1733 C.ar    1  UNL1        0.0369
     19 C         138.6080  139.4387  159.7807 C.ar    1  UNL1        0.1468
     20 C         137.6430  139.9377  160.8151 C.ar    1  UNL1        0.0369
     21 C         137.7778  139.4950  162.2420 C.ar    1  UNL1        0.0005
     22 O         138.4732  139.8813  158.3539 O.3     1  UNL1       -0.4045
     23 C         137.9920  141.2671  158.0406 C.3     1  UNL1        0.5753
     24 F         137.5108  142.6528  157.7274 F       1  UNL1       -0.1328
     25 F         139.2842  141.8314  158.5521 F       1  UNL1       -0.1328
     26 F         136.6998  140.7027  157.5291 F       1  UNL1       -0.1328
     27 C         142.2905  141.8053  164.6388 C.3     1  UNL1        0.1007
     28 C         141.8492  143.0559  163.9380 C.3     1  UNL1        0.0673
     29 C         140.3895  143.3888  163.8460 C.ar    1  UNL1        0.0607
     30 C         139.7265  144.1653  164.9449 C.ar    1  UNL1        0.0148
     31 C         138.2668  144.4982  164.8528 C.ar    1  UNL1        0.0028
     32 C         137.4701  144.0546  163.6618 C.ar    1  UNL1        0.0207
     33 C         138.1330  143.2781  162.5629 C.ar    1  UNL1        0.0984
     34 N         139.5927  142.9452  162.6550 N.ar    1  UNL1       -0.2481
@<TRIPOS>BOND
     1    11    12    2
     2    12    13   am
     3    13    15    1
     4    15    16    1
     5    16    17   ar
     6    17    18   ar
     7    18    19   ar
     8    19    22    1
     9    22    23    1
    10    23    24    1
    11    23    25    1
    12    23    26    1
    13    19    20   ar
    14    20    21   ar
    15    12     1    1
    16     1     2    1
    17     2     3   ar
    18     3     4   ar
    19     4     5   ar
    20     5     6   ar
    21     6     7   ar
    22     7     8    1
    23     8     9    2
    24     8    10   am
    25    10    27    1
    26    27    28    1
    27    28    29    1
    28    29    30   ar
    29    30    31   ar
    30    31    32   ar
    31    32    33   ar
    32    33    34   ar
    33    21    16   ar
    34    10     1    1
    35    34    29   ar
    36     7     2   ar
    37    13    14    1
@<TRIPOS>MOLECULE
*****
 34 37 0 0 0
SMALL
GASTEIGER

@<TRIPOS>ATOM
      1 C         140.2564  138.9951  161.5922 C.3     1  UNL1        0.1751
      2 C         139.7417  139.4846  160.2710 C.ar    1  UNL1        0.0089
      3 C         138.4418  140.1182  159.8726 C.ar    1  UNL1       -0.0021
      4 C         138.2058  140.5113  158.4445 C.ar    1  UNL1       -0.0003
      5 C         139.2696  140.2709  157.4147 C.ar    1  UNL1        0.0001
      6 C         140.5695  139.6372  157.8131 C.ar    1  UNL1        0.0043
      7 C         140.8056  139.2441  159.2412 C.ar    1  UNL1        0.0516
      8 C         141.9777  138.6060  159.9260 C.2     1  UNL1        0.2493
      9 O         143.2635  138.1941  159.2725 O.2     1  UNL1       -0.2699
     10 N         141.6383  138.4521  161.3790 N.am    1  UNL1       -0.2657
     11 O         138.8620  137.8023  163.4314 O.2     1  UNL1       -0.2729
     12 C         139.5187  139.0406  162.8974 C.2     1  UNL1        0.2451
     13 N         139.4377  140.3246  163.6688 N.am    1  UNL1       -0.2988
     14 H         139.8687  141.1374  163.3183 H       1  UNL1        0.1498
     15 C         138.6999  140.3702  164.9740 C.3     1  UNL1        0.1164
     16 C         139.4267  140.7373  166.2338 C.ar    1  UNL1       -0.0024
     17 C         140.2052  142.0174  166.3047 C.ar    1  UNL1        0.0005
     18 C         140.9320  142.3844  167.5645 C.ar    1  UNL1        0.0369
     19 C         140.8801  141.4713  168.7535 C.ar    1  UNL1        0.1468
     20 C         140.1016  140.1912  168.6826 C.ar    1  UNL1        0.0369
     21 C         139.3748  139.8241  167.4227 C.ar    1  UNL1        0.0005
     22 O         141.6069  141.8384  170.0132 O.3     1  UNL1       -0.4045
     23 C         143.0548  142.2264  169.9580 C.3     1  UNL1        0.5753
     24 F         144.5027  142.6144  169.9027 F       1  UNL1       -0.1328
     25 F         143.4117  140.8336  169.5306 F       1  UNL1       -0.1328
     26 F         142.6979  143.6192  170.3854 F       1  UNL1       -0.1328
     27 C         142.5252  137.8593  162.4336 C.3     1  UNL1        0.1007
     28 C         142.7331  138.5817  163.7315 C.3     1  UNL1        0.0673
     29 C         143.4003  139.9251  163.7437 C.ar    1  UNL1        0.0607
     30 C         144.8956  140.0192  163.8184 C.ar    1  UNL1        0.0148
     31 C         145.5628  141.3626  163.8306 C.ar    1  UNL1        0.0028
     32 C         144.7347  142.6118  163.7680 C.ar    1  UNL1        0.0207
     33 C         143.2396  142.5176  163.6933 C.ar    1  UNL1        0.0984
     34 N         142.5724  141.1743  163.6812 N.ar    1  UNL1       -0.2481
@<TRIPOS>BOND
     1    11    12    2
     2    12    13   am
     3    13    15    1
     4    15    16    1
     5    16    17   ar
     6    17    18   ar
     7    18    19   ar
     8    19    22    1
     9    22    23    1
    10    23    24    1
    11    23    25    1
    12    23    26    1
    13    19    20   ar
    14    20    21   ar
    15    12     1    1
    16     1     2    1
    17     2     3   ar
    18     3     4   ar
    19     4     5   ar
    20     5     6   ar
    21     6     7   ar
    22     7     8    1
    23     8     9    2
    24     8    10   am
    25    10    27    1
    26    27    28    1
    27    28    29    1
    28    29    30   ar
    29    30    31   ar
    30    31    32   ar
    31    32    33   ar
    32    33    34   ar
    33    21    16   ar
    34    10     1    1
    35    34    29   ar
    36     7     2   ar
    37    13    14    1
