@<TRIPOS>MOLECULE
*****
 35 37 0 0 0
SMALL
GASTEIGER

@<TRIPOS>ATOM
      1 C         143.3081  141.0036  165.8071 C.3     1  UNL1        0.0944
      2 O         143.1500  139.1166  168.1339 O.2     1  UNL1       -0.2701
      3 C         141.9707  139.9743  167.7824 C.2     1  UNL1        0.2474
      4 N         142.0497  140.9178  166.6190 N.am    1  UNL1       -0.3005
      5 H         141.2757  141.4808  166.3884 H       1  UNL1        0.1498
      6 C         140.7124  139.8886  168.5943 C.ar    1  UNL1        0.0727
      7 C         139.3880  139.7226  167.9098 C.ar    1  UNL1        0.0109
      8 C         138.1297  139.6368  168.7218 C.ar    1  UNL1        0.0579
      9 C         138.1957  139.7170  170.2182 C.ar    1  UNL1        0.2249
     10 N         139.5200  139.8830  170.9026 N.ar    1  UNL1       -0.2100
     11 C         140.7784  139.9688  170.0907 C.ar    1  UNL1        0.1065
     12 O         136.9374  139.6313  171.0301 O.3     1  UNL1       -0.4599
     13 C         136.1962  138.3309  171.1297 C.3     1  UNL1        0.2159
     14 C         135.4402  137.9925  172.3802 C.3     1  UNL1        0.1505
     15 C         135.7425  136.7225  173.1190 C.3     1  UNL1        0.4014
     16 F         136.0447  135.4526  173.8578 F       1  UNL1       -0.1699
     17 F         137.1602  136.7767  172.6321 F       1  UNL1       -0.1699
     18 F         134.3248  136.6683  173.6059 F       1  UNL1       -0.1699
     19 C         143.4390  140.2107  164.5406 C.3     1  UNL1        0.0476
     20 C         142.3514  139.2606  164.1347 C.ar    1  UNL1       -0.0190
     21 C         142.2397  137.9205  164.7992 C.ar    1  UNL1       -0.0042
     22 C         141.1522  136.9705  164.3933 C.ar    1  UNL1       -0.0003
     23 C         140.1764  137.3606  163.3230 C.ar    1  UNL1        0.0000
     24 C         140.2881  138.7007  162.6585 C.ar    1  UNL1        0.0012
     25 C         141.3756  139.6507  163.0644 C.ar    1  UNL1        0.0153
     26 C         141.4874  140.9909  162.3999 C.ar    1  UNL1        0.1004
     27 C         140.7200  142.1616  162.9390 C.ar    1  UNL1        0.1211
     28 N         140.8317  143.5017  162.2746 N.ar    1  UNL1       -0.2071
     29 C         141.7108  143.6712  161.0710 C.ar    1  UNL1        0.2490
     30 C         142.4781  142.5005  160.5319 C.ar    1  UNL1        0.1565
     31 N         142.3664  141.1603  161.1964 N.ar    1  UNL1       -0.2374
     32 O         141.8225  145.0114  160.4066 O.3     1  UNL1       -0.4051
     33 C         140.5915  145.7015  159.8984 C.3     1  UNL1        0.5098
     34 F         139.6538  146.3679  160.8611 F       1  UNL1       -0.1549
     35 F         140.2980  145.7253  158.4276 F       1  UNL1       -0.1549
@<TRIPOS>BOND
     1     2     3    2
     2     3     4   am
     3     4     1    1
     4     1    19    1
     5    19    20    1
     6    20    21   ar
     7    21    22   ar
     8    22    23   ar
     9    23    24   ar
    10    24    25   ar
    11    25    26    1
    12    26    27   ar
    13    27    28   ar
    14    28    29   ar
    15    29    32    1
    16    32    33    1
    17    33    34    1
    18    33    35    1
    19    29    30   ar
    20    30    31   ar
    21     3     6    1
    22     6     7   ar
    23     7     8   ar
    24     8     9   ar
    25     9    12    1
    26    12    13    1
    27    13    14    1
    28    14    15    1
    29    15    16    1
    30    15    17    1
    31    15    18    1
    32     9    10   ar
    33    10    11   ar
    34    25    20   ar
    35    31    26   ar
    36    11     6   ar
    37     4     5    1
@<TRIPOS>MOLECULE
*****
 35 37 0 0 0
SMALL
GASTEIGER

@<TRIPOS>ATOM
      1 C         138.3371  139.5483  166.1864 C.3     1  UNL1        0.0944
      2 O         138.6838  138.3586  163.4542 O.2     1  UNL1       -0.2701
      3 C         138.5657  139.8452  163.6154 C.2     1  UNL1        0.2474
      4 N         138.3923  140.4401  164.9814 N.am    1  UNL1       -0.3005
      5 H         138.3148  141.4158  165.0872 H       1  UNL1        0.1498
      6 C         138.6210  140.7370  162.4106 C.ar    1  UNL1        0.0727
      7 C         139.5344  140.4001  161.2694 C.ar    1  UNL1        0.0109
      8 C         139.5896  141.2919  160.0646 C.ar    1  UNL1        0.0579
      9 C         138.7316  142.5205  160.0009 C.ar    1  UNL1        0.2249
     10 N         137.8182  142.8575  161.1420 N.ar    1  UNL1       -0.2100
     11 C         137.7629  141.9657  162.3469 C.ar    1  UNL1        0.1065
     12 O         138.7868  143.4123  158.7961 O.3     1  UNL1       -0.4599
     13 C         140.0270  144.2046  158.5056 C.3     1  UNL1        0.2159
     14 C         140.3164  145.4558  159.2806 C.3     1  UNL1        0.1505
     15 C         140.7454  145.3672  160.7152 C.3     1  UNL1        0.4014
     16 F         141.1745  145.2785  162.1498 F       1  UNL1       -0.1699
     17 F         139.7334  146.4116  161.0825 F       1  UNL1       -0.1699
     18 F         141.7575  144.3228  160.3479 F       1  UNL1       -0.1699
     19 C         139.5083  139.4765  167.1207 C.3     1  UNL1        0.0476
     20 C         139.6945  140.5300  168.1722 C.ar    1  UNL1       -0.0190
     21 C         139.0041  140.3974  169.4972 C.ar    1  UNL1       -0.0042
     22 C         139.1903  141.4508  170.5487 C.ar    1  UNL1       -0.0003
     23 C         140.0670  142.6368  170.2751 C.ar    1  UNL1        0.0000
     24 C         140.7574  142.7694  168.9501 C.ar    1  UNL1        0.0012
     25 C         140.5712  141.7160  167.8987 C.ar    1  UNL1        0.0153
     26 C         141.2616  141.8486  166.5736 C.ar    1  UNL1        0.1004
     27 C         142.6465  141.3019  166.3915 C.ar    1  UNL1        0.1211
     28 N         143.3369  141.4344  165.0665 N.ar    1  UNL1       -0.2071
     29 C         142.6425  142.1137  163.9235 C.ar    1  UNL1        0.2490
     30 C         141.2576  142.6604  164.1056 C.ar    1  UNL1        0.1565
     31 N         140.5671  142.5278  165.4307 N.ar    1  UNL1       -0.2374
     32 O         143.3329  142.2462  162.5985 O.3     1  UNL1       -0.4051
     33 C         144.6853  142.8901  162.5186 C.3     1  UNL1        0.5098
     34 F         144.8000  144.3680  162.2892 F       1  UNL1       -0.1549
     35 F         145.9231  142.0561  162.6680 F       1  UNL1       -0.1549
@<TRIPOS>BOND
     1     2     3    2
     2     3     4   am
     3     4     1    1
     4     1    19    1
     5    19    20    1
     6    20    21   ar
     7    21    22   ar
     8    22    23   ar
     9    23    24   ar
    10    24    25   ar
    11    25    26    1
    12    26    27   ar
    13    27    28   ar
    14    28    29   ar
    15    29    32    1
    16    32    33    1
    17    33    34    1
    18    33    35    1
    19    29    30   ar
    20    30    31   ar
    21     3     6    1
    22     6     7   ar
    23     7     8   ar
    24     8     9   ar
    25     9    12    1
    26    12    13    1
    27    13    14    1
    28    14    15    1
    29    15    16    1
    30    15    17    1
    31    15    18    1
    32     9    10   ar
    33    10    11   ar
    34    25    20   ar
    35    31    26   ar
    36    11     6   ar
    37     4     5    1
@<TRIPOS>MOLECULE
*****
 35 37 0 0 0
SMALL
GASTEIGER

@<TRIPOS>ATOM
      1 C         139.5571  138.3133  161.4921 C.3     1  UNL1        0.0944
      2 O         140.9867  137.1307  163.8497 O.2     1  UNL1       -0.2701
      3 C         140.0227  138.2627  164.0477 C.2     1  UNL1        0.2474
      4 N         139.3079  138.8541  162.8690 N.am    1  UNL1       -0.3005
      5 H         138.6752  139.5971  162.9990 H       1  UNL1        0.1498
      6 C         139.7735  138.8035  165.4244 C.ar    1  UNL1        0.0727
      7 C         140.8232  139.6294  166.1072 C.ar    1  UNL1        0.0109
      8 C         140.5740  140.1701  167.4840 C.ar    1  UNL1        0.0579
      9 C         139.2751  139.8850  168.1780 C.ar    1  UNL1        0.2249
     10 N         138.2254  139.0592  167.4952 N.ar    1  UNL1       -0.2100
     11 C         138.4746  138.5184  166.1184 C.ar    1  UNL1        0.1065
     12 O         139.0259  140.4258  169.5547 O.3     1  UNL1       -0.4599
     13 C         140.1462  140.4881  170.5502 C.3     1  UNL1        0.2159
     14 C         141.0119  141.7105  170.6295 C.3     1  UNL1        0.1505
     15 C         140.5422  143.0025  170.0292 C.3     1  UNL1        0.4014
     16 F         140.0725  144.2943  169.4288 F       1  UNL1       -0.1699
     17 F         139.4673  143.0959  171.0712 F       1  UNL1       -0.1699
     18 F         141.6170  142.9090  168.9871 F       1  UNL1       -0.1699
     19 C         140.3067  139.1369  160.4872 C.3     1  UNL1        0.0476
     20 C         139.6776  139.4620  159.1649 C.ar    1  UNL1       -0.0190
     21 C         139.9565  138.6000  157.9695 C.ar    1  UNL1       -0.0042
     22 C         139.3274  138.9251  156.6472 C.ar    1  UNL1       -0.0003
     23 C         138.4194  140.1123  156.5203 C.ar    1  UNL1        0.0000
     24 C         138.1404  140.9743  157.7157 C.ar    1  UNL1        0.0012
     25 C         138.7695  140.6491  159.0380 C.ar    1  UNL1        0.0153
     26 C         138.4906  141.5112  160.2335 C.ar    1  UNL1        0.1004
     27 C         139.0897  142.8833  160.3249 C.ar    1  UNL1        0.1211
     28 N         138.8108  143.7453  161.5204 N.ar    1  UNL1       -0.2071
     29 C         137.9327  143.2352  162.6245 C.ar    1  UNL1        0.2490
     30 C         137.3337  141.8631  162.5331 C.ar    1  UNL1        0.1565
     31 N         137.6126  141.0011  161.3375 N.ar    1  UNL1       -0.2374
     32 O         137.6539  144.0973  163.8199 O.3     1  UNL1       -0.4051
     33 C         138.6166  144.1189  164.9700 C.3     1  UNL1        0.5098
     34 F         138.7207  145.3377  165.8381 F       1  UNL1       -0.1549
     35 F         139.4753  142.9218  165.2519 F       1  UNL1       -0.1549
@<TRIPOS>BOND
     1     2     3    2
     2     3     4   am
     3     4     1    1
     4     1    19    1
     5    19    20    1
     6    20    21   ar
     7    21    22   ar
     8    22    23   ar
     9    23    24   ar
    10    24    25   ar
    11    25    26    1
    12    26    27   ar
    13    27    28   ar
    14    28    29   ar
    15    29    32    1
    16    32    33    1
    17    33    34    1
    18    33    35    1
    19    29    30   ar
    20    30    31   ar
    21     3     6    1
    22     6     7   ar
    23     7     8   ar
    24     8     9   ar
    25     9    12    1
    26    12    13    1
    27    13    14    1
    28    14    15    1
    29    15    16    1
    30    15    17    1
    31    15    18    1
    32     9    10   ar
    33    10    11   ar
    34    25    20   ar
    35    31    26   ar
    36    11     6   ar
    37     4     5    1
@<TRIPOS>MOLECULE
*****
 35 37 0 0 0
SMALL
GASTEIGER

@<TRIPOS>ATOM
      1 C         138.9086  138.0601  165.1300 C.3     1  UNL1        0.0944
      2 O         138.0060  137.8168  162.2794 O.2     1  UNL1       -0.2701
      3 C         139.4554  138.0462  162.5901 C.2     1  UNL1        0.2474
      4 N         139.9067  138.1679  164.0154 N.am    1  UNL1       -0.3005
      5 H         140.8580  138.3185  164.2193 H       1  UNL1        0.1498
      6 C         140.4535  138.1541  161.4756 C.ar    1  UNL1        0.0727
      7 C         141.9022  137.8643  161.7355 C.ar    1  UNL1        0.0109
      8 C         142.9002  137.9722  160.6210 C.ar    1  UNL1        0.0579
      9 C         142.4497  138.3697  159.2465 C.ar    1  UNL1        0.2249
     10 N         141.0011  138.6594  158.9867 N.ar    1  UNL1       -0.2100
     11 C         140.0029  138.5516  160.1012 C.ar    1  UNL1        0.1065
     12 O         143.4478  138.4775  158.1320 O.3     1  UNL1       -0.4599
     13 C         142.9795  138.7060  156.7254 C.3     1  UNL1        0.2159
     14 C         142.9535  137.5674  155.7493 C.3     1  UNL1        0.1505
     15 C         143.5318  136.2375  156.1326 C.3     1  UNL1        0.4014
     16 F         144.1101  134.9076  156.5160 F       1  UNL1       -0.1699
     17 F         144.8043  136.5848  155.4183 F       1  UNL1       -0.1699
     18 F         142.2594  135.8902  156.8469 F       1  UNL1       -0.1699
     19 C         138.2800  139.2987  165.6962 C.3     1  UNL1        0.0476
     20 C         139.0965  140.2393  166.5320 C.ar    1  UNL1       -0.0190
     21 C         139.4593  139.8696  167.9397 C.ar    1  UNL1       -0.0042
     22 C         140.2758  140.8102  168.7755 C.ar    1  UNL1       -0.0003
     23 C         140.7294  142.1206  168.2035 C.ar    1  UNL1        0.0000
     24 C         140.3666  142.4904  166.7959 C.ar    1  UNL1        0.0012
     25 C         139.5501  141.5497  165.9601 C.ar    1  UNL1        0.0153
     26 C         139.1872  141.9195  164.5524 C.ar    1  UNL1        0.1004
     27 C         137.9789  142.7679  164.2875 C.ar    1  UNL1        0.1211
     28 N         137.6160  143.1376  162.8799 N.ar    1  UNL1       -0.2071
     29 C         138.4615  142.6589  161.7369 C.ar    1  UNL1        0.2490
     30 C         139.6698  141.8105  162.0018 C.ar    1  UNL1        0.1565
     31 N         140.0327  141.4407  163.4095 N.ar    1  UNL1       -0.2374
     32 O         138.0986  143.0286  160.3293 O.3     1  UNL1       -0.4051
     33 C         139.1302  142.9494  159.2433 C.3     1  UNL1        0.5098
     34 F         139.7249  144.2062  158.6806 F       1  UNL1       -0.1549
     35 F         139.5672  141.6133  158.7200 F       1  UNL1       -0.1549
@<TRIPOS>BOND
     1     2     3    2
     2     3     4   am
     3     4     1    1
     4     1    19    1
     5    19    20    1
     6    20    21   ar
     7    21    22   ar
     8    22    23   ar
     9    23    24   ar
    10    24    25   ar
    11    25    26    1
    12    26    27   ar
    13    27    28   ar
    14    28    29   ar
    15    29    32    1
    16    32    33    1
    17    33    34    1
    18    33    35    1
    19    29    30   ar
    20    30    31   ar
    21     3     6    1
    22     6     7   ar
    23     7     8   ar
    24     8     9   ar
    25     9    12    1
    26    12    13    1
    27    13    14    1
    28    14    15    1
    29    15    16    1
    30    15    17    1
    31    15    18    1
    32     9    10   ar
    33    10    11   ar
    34    25    20   ar
    35    31    26   ar
    36    11     6   ar
    37     4     5    1
@<TRIPOS>MOLECULE
*****
 35 37 0 0 0
SMALL
GASTEIGER

@<TRIPOS>ATOM
      1 C         143.2288  140.8880  165.8077 C.3     1  UNL1        0.0944
      2 O         144.2580  143.5757  164.9608 O.2     1  UNL1       -0.2701
      3 C         143.0703  142.9754  164.2688 C.2     1  UNL1        0.2474
      4 N         142.5556  141.6316  164.6922 N.am    1  UNL1       -0.3005
      5 H         141.7760  141.2376  164.2381 H       1  UNL1        0.1498
      6 C         142.3971  143.7188  163.1535 C.ar    1  UNL1        0.0727
      7 C         141.2492  144.6378  163.4501 C.ar    1  UNL1        0.0109
      8 C         140.5761  145.3813  162.3348 C.ar    1  UNL1        0.0579
      9 C         141.0507  145.2058  160.9227 C.ar    1  UNL1        0.2249
     10 N         142.1985  144.2869  160.6260 N.ar    1  UNL1       -0.2100
     11 C         142.8718  143.5434  161.7414 C.ar    1  UNL1        0.1065
     12 O         140.3776  145.9493  159.8074 O.3     1  UNL1       -0.4599
     13 C         140.3142  145.3466  158.4352 C.3     1  UNL1        0.2159
     14 C         140.3294  146.2330  157.2252 C.3     1  UNL1        0.1505
     15 C         141.2208  145.9028  156.0648 C.3     1  UNL1        0.4014
     16 F         142.1120  145.5727  154.9044 F       1  UNL1       -0.1699
     17 F         140.6273  147.0389  155.2857 F       1  UNL1       -0.1699
     18 F         141.8142  144.7667  156.8438 F       1  UNL1       -0.1699
     19 C         142.5848  139.6646  166.3893 C.3     1  UNL1        0.0476
     20 C         141.9464  139.7257  167.7453 C.ar    1  UNL1       -0.0190
     21 C         142.7278  139.3242  168.9611 C.ar    1  UNL1       -0.0042
     22 C         142.0893  139.3854  170.3170 C.ar    1  UNL1       -0.0003
     23 C         140.6694  139.8481  170.4572 C.ar    1  UNL1        0.0000
     24 C         139.8879  140.2497  169.2414 C.ar    1  UNL1        0.0012
     25 C         140.5264  140.1885  167.8855 C.ar    1  UNL1        0.0153
     26 C         139.7449  140.5900  166.6697 C.ar    1  UNL1        0.1004
     27 C         138.8913  139.5813  165.9599 C.ar    1  UNL1        0.1211
     28 N         138.1098  139.9828  164.7442 N.ar    1  UNL1       -0.2071
     29 C         138.1821  141.3930  164.2381 C.ar    1  UNL1        0.2490
     30 C         139.0357  142.4017  164.9478 C.ar    1  UNL1        0.1565
     31 N         139.8172  142.0002  166.1636 N.ar    1  UNL1       -0.2374
     32 O         137.4006  141.7945  163.0223 O.3     1  UNL1       -0.4051
     33 C         137.7266  143.0735  162.3098 C.3     1  UNL1        0.5098
     34 F         137.3636  144.3906  162.9290 F       1  UNL1       -0.1549
     35 F         138.4158  143.0356  160.9780 F       1  UNL1       -0.1549
@<TRIPOS>BOND
     1     2     3    2
     2     3     4   am
     3     4     1    1
     4     1    19    1
     5    19    20    1
     6    20    21   ar
     7    21    22   ar
     8    22    23   ar
     9    23    24   ar
    10    24    25   ar
    11    25    26    1
    12    26    27   ar
    13    27    28   ar
    14    28    29   ar
    15    29    32    1
    16    32    33    1
    17    33    34    1
    18    33    35    1
    19    29    30   ar
    20    30    31   ar
    21     3     6    1
    22     6     7   ar
    23     7     8   ar
    24     8     9   ar
    25     9    12    1
    26    12    13    1
    27    13    14    1
    28    14    15    1
    29    15    16    1
    30    15    17    1
    31    15    18    1
    32     9    10   ar
    33    10    11   ar
    34    25    20   ar
    35    31    26   ar
    36    11     6   ar
    37     4     5    1
@<TRIPOS>MOLECULE
*****
 35 37 0 0 0
SMALL
GASTEIGER

@<TRIPOS>ATOM
      1 C         139.2104  138.3388  161.5765 C.3     1  UNL1        0.0944
      2 O         137.5628  140.3078  163.1284 O.2     1  UNL1       -0.2701
      3 C         138.5981  139.4791  163.8293 C.2     1  UNL1        0.2474
      4 N         139.4220  138.4946  163.0533 N.am    1  UNL1       -0.3005
      5 H         140.1015  137.9507  163.5134 H       1  UNL1        0.1498
      6 C         138.8097  139.6348  165.3060 C.ar    1  UNL1        0.0727
      7 C         139.8065  140.6310  165.8200 C.ar    1  UNL1        0.0109
      8 C         140.0180  140.7867  167.2968 C.ar    1  UNL1        0.0579
      9 C         139.2328  139.9463  168.2597 C.ar    1  UNL1        0.2249
     10 N         138.2360  138.9502  167.7458 N.ar    1  UNL1       -0.2100
     11 C         138.0244  138.7944  166.2689 C.ar    1  UNL1        0.1065
     12 O         139.4443  140.1020  169.7365 O.3     1  UNL1       -0.4599
     13 C         140.8021  139.8655  170.3288 C.3     1  UNL1        0.2159
     14 C         141.6138  141.0231  170.8296 C.3     1  UNL1        0.1505
     15 C         142.4239  141.8425  169.8691 C.3     1  UNL1        0.4014
     16 F         143.2339  142.6618  168.9087 F       1  UNL1       -0.1699
     17 F         141.2716  142.7885  169.7044 F       1  UNL1       -0.1699
     18 F         143.5762  140.8964  170.0339 F       1  UNL1       -0.1699
     19 C         139.4977  139.4851  160.6527 C.3     1  UNL1        0.0476
     20 C         140.8713  139.6565  160.0746 C.ar    1  UNL1       -0.0190
     21 C         141.4406  138.6047  159.1693 C.ar    1  UNL1       -0.0042
     22 C         142.8140  138.7760  158.5913 C.ar    1  UNL1       -0.0003
     23 C         143.6182  139.9992  158.9186 C.ar    1  UNL1        0.0000
     24 C         143.0490  141.0510  159.8239 C.ar    1  UNL1        0.0012
     25 C         141.6755  140.8796  160.4019 C.ar    1  UNL1        0.0153
     26 C         141.1061  141.9315  161.3072 C.ar    1  UNL1        0.1004
     27 C         141.5887  142.0436  162.7230 C.ar    1  UNL1        0.1211
     28 N         141.0194  143.0954  163.6284 N.ar    1  UNL1       -0.2071
     29 C         139.9675  144.0351  163.1179 C.ar    1  UNL1        0.2490
     30 C         139.4849  143.9229  161.7021 C.ar    1  UNL1        0.1565
     31 N         140.0543  142.8711  160.7967 N.ar    1  UNL1       -0.2374
     32 O         139.3982  145.0868  164.0232 O.3     1  UNL1       -0.4051
     33 C         138.4271  144.7037  165.1004 C.3     1  UNL1        0.5098
     34 F         137.5713  143.4824  164.9389 F       1  UNL1       -0.1549
     35 F         138.3118  145.5418  166.3390 F       1  UNL1       -0.1549
@<TRIPOS>BOND
     1     2     3    2
     2     3     4   am
     3     4     1    1
     4     1    19    1
     5    19    20    1
     6    20    21   ar
     7    21    22   ar
     8    22    23   ar
     9    23    24   ar
    10    24    25   ar
    11    25    26    1
    12    26    27   ar
    13    27    28   ar
    14    28    29   ar
    15    29    32    1
    16    32    33    1
    17    33    34    1
    18    33    35    1
    19    29    30   ar
    20    30    31   ar
    21     3     6    1
    22     6     7   ar
    23     7     8   ar
    24     8     9   ar
    25     9    12    1
    26    12    13    1
    27    13    14    1
    28    14    15    1
    29    15    16    1
    30    15    17    1
    31    15    18    1
    32     9    10   ar
    33    10    11   ar
    34    25    20   ar
    35    31    26   ar
    36    11     6   ar
    37     4     5    1
@<TRIPOS>MOLECULE
*****
 35 37 0 0 0
SMALL
GASTEIGER

@<TRIPOS>ATOM
      1 C         139.5105  138.3713  160.7249 C.3     1  UNL1        0.0944
      2 O         140.7780  136.9387  163.0360 O.2     1  UNL1       -0.2701
      3 C         139.8748  138.1103  163.2841 C.2     1  UNL1        0.2474
      4 N         139.2410  138.8266  162.1286 N.am    1  UNL1       -0.3005
      5 H         138.6482  139.5956  162.2914 H       1  UNL1        0.1498
      6 C         139.6053  138.5656  164.6876 C.ar    1  UNL1        0.0727
      7 C         140.4173  139.6767  165.2846 C.ar    1  UNL1        0.0109
      8 C         140.1478  140.1320  166.6882 C.ar    1  UNL1        0.0579
      9 C         139.0665  139.4763  167.4948 C.ar    1  UNL1        0.2249
     10 N         138.2545  138.3653  166.8979 N.ar    1  UNL1       -0.2100
     11 C         138.5240  137.9099  165.4943 C.ar    1  UNL1        0.1065
     12 O         138.7970  139.9316  168.8984 O.3     1  UNL1       -0.4599
     13 C         139.8737  140.6210  169.6830 C.3     1  UNL1        0.2159
     14 C         139.7760  142.0923  169.9582 C.3     1  UNL1        0.1505
     15 C         141.0235  142.9131  170.1008 C.3     1  UNL1        0.4014
     16 F         142.2708  143.7338  170.2434 F       1  UNL1       -0.1699
     17 F         141.7702  141.6977  170.5647 F       1  UNL1       -0.1699
     18 F         140.2768  144.1284  169.6369 F       1  UNL1       -0.1699
     19 C         139.6641  139.3802  159.6257 C.3     1  UNL1        0.0476
     20 C         141.0329  139.8162  159.1937 C.ar    1  UNL1       -0.0190
     21 C         141.8557  138.9321  158.3042 C.ar    1  UNL1       -0.0042
     22 C         143.2244  139.3681  157.8723 C.ar    1  UNL1       -0.0003
     23 C         143.7702  140.6883  158.3299 C.ar    1  UNL1        0.0000
     24 C         142.9473  141.5724  159.2193 C.ar    1  UNL1        0.0012
     25 C         141.5787  141.1364  159.6512 C.ar    1  UNL1        0.0153
     26 C         140.7557  142.0205  160.5408 C.ar    1  UNL1        0.1004
     27 C         139.9902  143.1698  159.9549 C.ar    1  UNL1        0.1211
     28 N         139.1673  144.0539  160.8443 N.ar    1  UNL1       -0.2071
     29 C         139.1099  143.7888  162.3197 C.ar    1  UNL1        0.2490
     30 C         139.8754  142.6395  162.9055 C.ar    1  UNL1        0.1565
     31 N         140.6983  141.7554  162.0160 N.ar    1  UNL1       -0.2374
     32 O         138.2869  144.6729  163.2091 O.3     1  UNL1       -0.4051
     33 C         138.0455  144.2837  164.6375 C.3     1  UNL1        0.5098
     34 F         137.3254  143.0069  164.9555 F       1  UNL1       -0.1549
     35 F         138.5243  145.1713  165.7478 F       1  UNL1       -0.1549
@<TRIPOS>BOND
     1     2     3    2
     2     3     4   am
     3     4     1    1
     4     1    19    1
     5    19    20    1
     6    20    21   ar
     7    21    22   ar
     8    22    23   ar
     9    23    24   ar
    10    24    25   ar
    11    25    26    1
    12    26    27   ar
    13    27    28   ar
    14    28    29   ar
    15    29    32    1
    16    32    33    1
    17    33    34    1
    18    33    35    1
    19    29    30   ar
    20    30    31   ar
    21     3     6    1
    22     6     7   ar
    23     7     8   ar
    24     8     9   ar
    25     9    12    1
    26    12    13    1
    27    13    14    1
    28    14    15    1
    29    15    16    1
    30    15    17    1
    31    15    18    1
    32     9    10   ar
    33    10    11   ar
    34    25    20   ar
    35    31    26   ar
    36    11     6   ar
    37     4     5    1
@<TRIPOS>MOLECULE
*****
 35 37 0 0 0
SMALL
GASTEIGER

@<TRIPOS>ATOM
      1 C         138.5610  143.1415  161.5871 C.3     1  UNL1        0.0944
      2 O         137.3446  140.6810  162.7983 O.2     1  UNL1       -0.2701
      3 C         138.3638  141.4696  163.5660 C.2     1  UNL1        0.2474
      4 N         138.9720  142.6998  162.9605 N.am    1  UNL1       -0.3005
      5 H         139.6409  143.2173  163.4644 H       1  UNL1        0.1498
      6 C         138.7749  141.0279  164.9393 C.ar    1  UNL1        0.0727
      7 C         138.2336  139.7506  165.5098 C.ar    1  UNL1        0.0109
      8 C         138.6446  139.3089  166.8830 C.ar    1  UNL1        0.0579
      9 C         139.5970  140.1446  167.6859 C.ar    1  UNL1        0.2249
     10 N         140.1383  141.4219  167.1155 N.ar    1  UNL1       -0.2100
     11 C         139.7272  141.8636  165.7422 C.ar    1  UNL1        0.1065
     12 O         140.0080  139.7029  169.0592 O.3     1  UNL1       -0.4599
     13 C         139.6646  140.5451  170.2521 C.3     1  UNL1        0.2159
     14 C         140.6104  141.6143  170.7126 C.3     1  UNL1        0.1505
     15 C         140.4447  143.0232  170.2250 C.3     1  UNL1        0.4014
     16 F         140.2790  144.4320  169.7373 F       1  UNL1       -0.1699
     17 F         139.1501  143.1306  170.9750 F       1  UNL1       -0.1699
     18 F         141.7392  142.9158  169.4750 F       1  UNL1       -0.1699
     19 C         139.1160  142.4476  160.3787 C.3     1  UNL1        0.0476
     20 C         140.2426  143.0696  159.6079 C.ar    1  UNL1       -0.0190
     21 C         139.9568  144.1307  158.5870 C.ar    1  UNL1       -0.0042
     22 C         141.0834  144.7527  157.8163 C.ar    1  UNL1       -0.0003
     23 C         142.4957  144.3136  158.0667 C.ar    1  UNL1        0.0000
     24 C         142.7814  143.2525  159.0876 C.ar    1  UNL1        0.0012
     25 C         141.6548  142.6306  159.8583 C.ar    1  UNL1        0.0153
     26 C         141.9405  141.5694  160.8793 C.ar    1  UNL1        0.1004
     27 C         142.1346  140.1460  160.4475 C.ar    1  UNL1        0.1211
     28 N         142.4203  139.0849  161.4685 N.ar    1  UNL1       -0.2071
     29 C         142.5119  139.4471  162.9213 C.ar    1  UNL1        0.2490
     30 C         142.3178  140.8705  163.3530 C.ar    1  UNL1        0.1565
     31 N         142.0322  141.9316  162.3320 N.ar    1  UNL1       -0.2374
     32 O         142.7976  138.3860  163.9422 O.3     1  UNL1       -0.4051
     33 C         141.8586  138.1811  165.0939 C.3     1  UNL1        0.5098
     34 F         140.5902  137.4046  164.8984 F       1  UNL1       -0.1549
     35 F         142.1880  138.7527  166.4410 F       1  UNL1       -0.1549
@<TRIPOS>BOND
     1     2     3    2
     2     3     4   am
     3     4     1    1
     4     1    19    1
     5    19    20    1
     6    20    21   ar
     7    21    22   ar
     8    22    23   ar
     9    23    24   ar
    10    24    25   ar
    11    25    26    1
    12    26    27   ar
    13    27    28   ar
    14    28    29   ar
    15    29    32    1
    16    32    33    1
    17    33    34    1
    18    33    35    1
    19    29    30   ar
    20    30    31   ar
    21     3     6    1
    22     6     7   ar
    23     7     8   ar
    24     8     9   ar
    25     9    12    1
    26    12    13    1
    27    13    14    1
    28    14    15    1
    29    15    16    1
    30    15    17    1
    31    15    18    1
    32     9    10   ar
    33    10    11   ar
    34    25    20   ar
    35    31    26   ar
    36    11     6   ar
    37     4     5    1
@<TRIPOS>MOLECULE
*****
 35 37 0 0 0
SMALL
GASTEIGER

@<TRIPOS>ATOM
      1 C         142.3564  141.9053  160.2005 C.3     1  UNL1        0.0944
      2 O         144.2198  141.4566  162.5085 O.2     1  UNL1       -0.2701
      3 C         142.7382  141.3306  162.7054 C.2     1  UNL1        0.2474
      4 N         141.8065  141.5549  161.5515 N.am    1  UNL1       -0.3005
      5 H         140.8340  141.4722  161.6807 H       1  UNL1        0.1498
      6 C         142.1882  140.9803  164.0562 C.ar    1  UNL1        0.0727
      7 C         143.0907  140.9719  165.2543 C.ar    1  UNL1        0.0109
      8 C         142.5407  140.6215  166.6051 C.ar    1  UNL1        0.0579
      9 C         141.0883  140.2796  166.7579 C.ar    1  UNL1        0.2249
     10 N         140.1857  140.2879  165.5599 N.ar    1  UNL1       -0.2100
     11 C         140.7357  140.6383  164.2089 C.ar    1  UNL1        0.1065
     12 O         140.5383  139.9292  168.1087 O.3     1  UNL1       -0.4599
     13 C         139.7225  140.9321  168.8695 C.3     1  UNL1        0.2159
     14 C         140.3482  141.7176  169.9838 C.3     1  UNL1        0.1505
     15 C         140.3372  143.2170  169.9426 C.3     1  UNL1        0.4014
     16 F         140.3262  144.7164  169.9015 F       1  UNL1       -0.1699
     17 F         141.4186  143.1964  168.9033 F       1  UNL1       -0.1699
     18 F         139.2559  143.2376  170.9819 F       1  UNL1       -0.1699
     19 C         142.7510  143.3199  159.8953 C.3     1  UNL1        0.0476
     20 C         142.1124  144.0458  158.7484 C.ar    1  UNL1       -0.0190
     21 C         142.8172  144.1278  157.4268 C.ar    1  UNL1       -0.0042
     22 C         142.1786  144.8537  156.2801 C.ar    1  UNL1       -0.0003
     23 C         140.8351  145.4976  156.4548 C.ar    1  UNL1        0.0000
     24 C         140.1303  145.4157  157.7763 C.ar    1  UNL1        0.0012
     25 C         140.7690  144.6898  158.9231 C.ar    1  UNL1        0.0153
     26 C         140.0641  144.6078  160.2447 C.ar    1  UNL1        0.1004
     27 C         140.2155  145.7150  161.2454 C.ar    1  UNL1        0.1211
     28 N         139.5108  145.6331  162.5669 N.ar    1  UNL1       -0.2071
     29 C         138.6546  144.4439  162.8879 C.ar    1  UNL1        0.2490
     30 C         138.5032  143.3367  161.8873 C.ar    1  UNL1        0.1565
     31 N         139.2080  143.4187  160.5657 N.ar    1  UNL1       -0.2374
     32 O         137.9498  144.3620  164.2095 O.3     1  UNL1       -0.4051
     33 C         138.7054  144.6188  165.4796 C.3     1  UNL1        0.5098
     34 F         139.9471  143.8347  165.7852 F       1  UNL1       -0.1549
     35 F         138.2193  145.6596  166.4441 F       1  UNL1       -0.1549
@<TRIPOS>BOND
     1     2     3    2
     2     3     4   am
     3     4     1    1
     4     1    19    1
     5    19    20    1
     6    20    21   ar
     7    21    22   ar
     8    22    23   ar
     9    23    24   ar
    10    24    25   ar
    11    25    26    1
    12    26    27   ar
    13    27    28   ar
    14    28    29   ar
    15    29    32    1
    16    32    33    1
    17    33    34    1
    18    33    35    1
    19    29    30   ar
    20    30    31   ar
    21     3     6    1
    22     6     7   ar
    23     7     8   ar
    24     8     9   ar
    25     9    12    1
    26    12    13    1
    27    13    14    1
    28    14    15    1
    29    15    16    1
    30    15    17    1
    31    15    18    1
    32     9    10   ar
    33    10    11   ar
    34    25    20   ar
    35    31    26   ar
    36    11     6   ar
    37     4     5    1
