@<TRIPOS>MOLECULE
*****
 36 41 0 0 0
SMALL
GASTEIGER

@<TRIPOS>ATOM
      1 C         139.4074  140.7686  164.9869 C.3     1  UNL1        0.0927
      2 C         140.5517  140.5608  164.0396 C.3     1  UNL1        0.0926
      3 N         140.2885  140.3801  162.5739 N.3     1  UNL1       -0.2684
      4 C         141.4328  140.1723  161.6265 C.3     1  UNL1        0.0939
      5 C         141.1697  139.9916  160.1609 C.3     1  UNL1        0.1107
      6 N         139.7624  140.0186  159.6426 N.am    1  UNL1       -0.2764
      7 C         139.4993  139.8378  158.1769 C.2     1  UNL1        0.2302
      8 O         138.0919  139.8649  157.6587 O.2     1  UNL1       -0.2745
      9 C         138.6181  140.2264  160.5900 C.3     1  UNL1        0.1107
     10 C         138.8812  140.4071  162.0557 C.3     1  UNL1        0.0934
     11 C         137.7369  140.6149  163.0030 C.3     1  UNL1        0.0867
     12 N         138.0001  140.7956  164.4686 N.3     1  UNL1       -0.2928
     13 H         137.4939  140.0539  164.9523 H       1  UNL1        0.1236
     14 C         140.0773  143.4862  166.0667 C.3     1  UNL1        0.0305
     15 C         140.0054  142.3081  166.9925 C.ar    1  UNL1       -0.0248
     16 C         139.6705  140.9494  166.4526 C.ar    1  UNL1       -0.0108
     17 C         139.5986  139.7713  167.3783 C.ar    1  UNL1       -0.0031
     18 C         139.8617  139.9520  168.8439 C.ar    1  UNL1        0.0059
     19 C         140.1966  141.3108  169.3839 C.ar    1  UNL1        0.0748
     20 C         140.2685  142.4889  168.4582 C.ar    1  UNL1        0.0233
     21 C         140.6191  143.6982  169.2733 C.3     1  UNL1        0.2352
     22 O         140.7638  143.2676  170.7028 O.3     1  UNL1       -0.4404
     23 C         140.5028  141.7921  170.7711 C.2     1  UNL1        0.3413
     24 O         140.5411  140.9464  172.0094 O.2     1  UNL1       -0.2449
     25 C         140.6435  139.6301  157.2296 C.3     1  UNL1        0.1131
     26 C         141.0689  138.2398  156.8609 C.ar    1  UNL1        0.0062
     27 C         140.3195  137.4811  155.8059 C.ar    1  UNL1        0.0009
     28 C         140.7449  136.0908  155.4371 C.ar    1  UNL1        0.0386
     29 C         141.9196  135.4590  156.1233 C.ar    1  UNL1        0.1672
     30 N         142.6690  136.2176  157.1783 N.ar    1  UNL1       -0.2252
     31 C         142.2436  137.6080  157.5471 C.ar    1  UNL1        0.0968
     32 N         142.3450  134.0687  155.7546 N.ar    1  UNL1       -0.1708
     33 C         142.6560  133.5796  154.3711 C.ar    1  UNL1        0.2272
     34 N         143.0373  132.1319  154.4660 N.ar    1  UNL1       -0.1044
     35 N         142.9618  131.7263  155.9083 N.ar    1  UNL1       -0.0222
     36 N         142.5340  132.9233  156.7046 N.ar    1  UNL1       -0.0371
@<TRIPOS>BOND
     1    14    15    1
     2    15    16   ar
     3     1    16    1
     4     1     2    1
     5     2     3    1
     6     3     4    1
     7     4     5    1
     8     5     6    1
     9     6     7   am
    10     7     8    2
    11     7    25    1
    12    25    26    1
    13    26    27   ar
    14    27    28   ar
    15    28    29   ar
    16    29    32    1
    17    32    33   ar
    18    33    34   ar
    19    34    35   ar
    20    35    36   ar
    21    29    30   ar
    22    30    31   ar
    23     6     9    1
    24    10     9    1
    25    10    11    1
    26    11    12    1
    27    16    17   ar
    28    17    18   ar
    29    18    19   ar
    30    19    20   ar
    31    20    21    1
    32    21    22    1
    33    22    23    1
    34    23    24    2
    35    20    15   ar
    36    12     1    1
    37    23    19    1
    38    10     3    1
    39    31    26   ar
    40    36    32   ar
    41    12    13    1
@<TRIPOS>MOLECULE
*****
 36 41 0 0 0
SMALL
GASTEIGER

@<TRIPOS>ATOM
      1 C         139.8495  139.5724  163.7125 C.3     1  UNL1        0.0927
      2 C         140.9513  138.6857  163.2129 C.3     1  UNL1        0.0926
      3 N         141.1925  138.5472  161.7389 N.3     1  UNL1       -0.2684
      4 C         142.2944  137.6605  161.2392 C.3     1  UNL1        0.0939
      5 C         142.5355  137.5220  159.7653 C.3     1  UNL1        0.1107
      6 N         141.6748  138.2702  158.7909 N.am    1  UNL1       -0.2764
      7 C         141.9160  138.1317  157.3169 C.2     1  UNL1        0.2302
      8 O         141.0553  138.8799  156.3425 O.2     1  UNL1       -0.2745
      9 C         140.5730  139.1569  159.2905 C.3     1  UNL1        0.1107
     10 C         140.3318  139.2954  160.7645 C.3     1  UNL1        0.0934
     11 C         139.2299  140.1821  161.2641 C.3     1  UNL1        0.0867
     12 N         138.9888  140.3206  162.7381 N.3     1  UNL1       -0.2928
     13 H         138.0272  140.0261  162.9081 H       1  UNL1        0.1236
     14 C         141.5580  141.4207  165.3449 C.3     1  UNL1        0.0305
     15 C         140.4626  140.6351  166.0027 C.ar    1  UNL1       -0.0248
     16 C         139.6083  139.7109  165.1865 C.ar    1  UNL1       -0.0108
     17 C         138.5128  138.9253  165.8443 C.ar    1  UNL1       -0.0031
     18 C         138.2716  139.0638  167.3183 C.ar    1  UNL1        0.0059
     19 C         139.1259  139.9880  168.1345 C.ar    1  UNL1        0.0748
     20 C         140.2214  140.7736  167.4767 C.ar    1  UNL1        0.0233
     21 C         140.8965  141.5998  168.5309 C.3     1  UNL1        0.2352
     22 O         140.2183  141.3249  169.8403 O.3     1  UNL1       -0.4404
     23 C         139.1240  140.3287  169.5952 C.2     1  UNL1        0.3413
     24 O         138.1915  139.7711  170.6295 O.2     1  UNL1       -0.2449
     25 C         143.0179  137.2450  156.8173 C.3     1  UNL1        0.1131
     26 C         142.7463  135.7967  156.5371 C.ar    1  UNL1        0.0062
     27 C         141.9223  135.4047  155.3465 C.ar    1  UNL1        0.0009
     28 C         141.6507  133.9564  155.0663 C.ar    1  UNL1        0.0386
     29 C         142.2030  132.8999  155.9768 C.ar    1  UNL1        0.1672
     30 N         143.0269  133.2918  157.1674 N.ar    1  UNL1       -0.2252
     31 C         143.2986  134.7402  157.4476 C.ar    1  UNL1        0.0968
     32 N         141.9314  131.4516  155.6967 N.ar    1  UNL1       -0.1708
     33 C         142.7421  130.2907  156.1917 C.ar    1  UNL1        0.2272
     34 N         142.1131  129.0314  155.6732 N.ar    1  UNL1       -0.1044
     35 N         140.9136  129.4141  154.8578 N.ar    1  UNL1       -0.0222
     36 N         140.8013  130.9098  154.8722 N.ar    1  UNL1       -0.0371
@<TRIPOS>BOND
     1    14    15    1
     2    15    16   ar
     3     1    16    1
     4     1     2    1
     5     2     3    1
     6     3     4    1
     7     4     5    1
     8     5     6    1
     9     6     7   am
    10     7     8    2
    11     7    25    1
    12    25    26    1
    13    26    27   ar
    14    27    28   ar
    15    28    29   ar
    16    29    32    1
    17    32    33   ar
    18    33    34   ar
    19    34    35   ar
    20    35    36   ar
    21    29    30   ar
    22    30    31   ar
    23     6     9    1
    24    10     9    1
    25    10    11    1
    26    11    12    1
    27    16    17   ar
    28    17    18   ar
    29    18    19   ar
    30    19    20   ar
    31    20    21    1
    32    21    22    1
    33    22    23    1
    34    23    24    2
    35    20    15   ar
    36    12     1    1
    37    23    19    1
    38    10     3    1
    39    31    26   ar
    40    36    32   ar
    41    12    13    1
@<TRIPOS>MOLECULE
*****
 36 41 0 0 0
SMALL
GASTEIGER

@<TRIPOS>ATOM
      1 C         139.8765  140.3353  164.2714 C.3     1  UNL1        0.0927
      2 C         141.0928  140.0457  163.4428 C.3     1  UNL1        0.0926
      3 N         140.9409  139.5755  162.0266 N.3     1  UNL1       -0.2684
      4 C         142.1572  139.2859  161.1978 C.3     1  UNL1        0.0939
      5 C         142.0052  138.8158  159.7816 C.3     1  UNL1        0.1107
      6 N         140.6370  138.6352  159.1940 N.am    1  UNL1       -0.2764
      7 C         140.4851  138.1650  157.7776 C.2     1  UNL1        0.2302
      8 O         139.1168  137.9844  157.1900 O.2     1  UNL1       -0.2745
      9 C         139.4207  138.9248  160.0226 C.3     1  UNL1        0.1107
     10 C         139.5726  139.3950  161.4390 C.3     1  UNL1        0.0934
     11 C         138.3563  139.6845  162.2676 C.3     1  UNL1        0.0867
     12 N         138.5082  140.1547  163.6838 N.3     1  UNL1       -0.2928
     13 H         138.0220  139.4783  164.2724 H       1  UNL1        0.1236
     14 C         138.5005  138.8657  166.4956 C.3     1  UNL1        0.0305
     15 C         139.3404  140.0707  166.7998 C.ar    1  UNL1       -0.0248
     16 C         140.0284  140.8055  165.6878 C.ar    1  UNL1       -0.0108
     17 C         140.8683  142.0105  165.9920 C.ar    1  UNL1       -0.0031
     18 C         141.0203  142.4807  167.4082 C.ar    1  UNL1        0.0059
     19 C         140.3322  141.7459  168.5204 C.ar    1  UNL1        0.0748
     20 C         139.4923  140.5409  168.2162 C.ar    1  UNL1        0.0233
     21 C         138.9384  140.0233  169.5104 C.3     1  UNL1        0.2352
     22 O         139.4360  140.9083  170.6145 O.3     1  UNL1       -0.4404
     23 C         140.2974  141.9729  170.0026 C.2     1  UNL1        0.3413
     24 O         141.0006  143.0718  170.7430 O.2     1  UNL1       -0.2449
     25 C         141.7014  137.8754  156.9490 C.3     1  UNL1        0.1131
     26 C         142.1453  136.4582  156.7383 C.ar    1  UNL1        0.0062
     27 C         141.5071  135.6237  155.6675 C.ar    1  UNL1        0.0009
     28 C         141.9510  134.2065  155.4568 C.ar    1  UNL1        0.0386
     29 C         143.0330  133.6237  156.3167 C.ar    1  UNL1        0.1672
     30 N         143.6712  134.4581  157.3874 N.ar    1  UNL1       -0.2252
     31 C         143.2273  135.8754  157.5982 C.ar    1  UNL1        0.0968
     32 N         143.4769  132.2065  156.1060 N.ar    1  UNL1       -0.1708
     33 C         142.5884  130.9981  156.0852 C.ar    1  UNL1        0.2272
     34 N         143.4496  129.7935  155.8454 N.ar    1  UNL1       -0.1044
     35 N         144.8704  130.2575  155.7179 N.ar    1  UNL1       -0.0222
     36 N         144.8872  131.7488  155.8790 N.ar    1  UNL1       -0.0371
@<TRIPOS>BOND
     1    14    15    1
     2    15    16   ar
     3     1    16    1
     4     1     2    1
     5     2     3    1
     6     3     4    1
     7     4     5    1
     8     5     6    1
     9     6     7   am
    10     7     8    2
    11     7    25    1
    12    25    26    1
    13    26    27   ar
    14    27    28   ar
    15    28    29   ar
    16    29    32    1
    17    32    33   ar
    18    33    34   ar
    19    34    35   ar
    20    35    36   ar
    21    29    30   ar
    22    30    31   ar
    23     6     9    1
    24    10     9    1
    25    10    11    1
    26    11    12    1
    27    16    17   ar
    28    17    18   ar
    29    18    19   ar
    30    19    20   ar
    31    20    21    1
    32    21    22    1
    33    22    23    1
    34    23    24    2
    35    20    15   ar
    36    12     1    1
    37    23    19    1
    38    10     3    1
    39    31    26   ar
    40    36    32   ar
    41    12    13    1
@<TRIPOS>MOLECULE
*****
 36 41 0 0 0
SMALL
GASTEIGER

@<TRIPOS>ATOM
      1 C         144.2898  142.5025  158.0623 C.3     1  UNL1        0.0927
      2 C         144.0286  141.4355  159.0836 C.3     1  UNL1        0.0926
      3 N         142.8724  141.5698  160.0297 N.3     1  UNL1       -0.2684
      4 C         142.6112  140.5028  161.0511 C.3     1  UNL1        0.0939
      5 C         141.4549  140.6371  161.9972 C.3     1  UNL1        0.1107
      6 N         140.5599  141.8385  161.9219 N.am    1  UNL1       -0.2764
      7 C         139.4036  141.9727  162.8680 C.2     1  UNL1        0.2302
      8 O         138.5085  143.1741  162.7927 O.2     1  UNL1       -0.2745
      9 C         140.8211  142.9055  160.9005 C.3     1  UNL1        0.1107
     10 C         141.9773  142.7712  159.9544 C.3     1  UNL1        0.0934
     11 C         142.2385  143.8382  158.9330 C.3     1  UNL1        0.0867
     12 N         143.3947  143.7039  157.9870 N.3     1  UNL1       -0.2928
     13 H         143.9874  144.5219  158.1283 H       1  UNL1        0.1236
     14 C         143.8447  141.4462  155.2899 C.3     1  UNL1        0.0305
     15 C         145.2235  141.8401  155.7300 C.ar    1  UNL1       -0.0248
     16 C         145.4461  142.3682  157.1162 C.ar    1  UNL1       -0.0108
     17 C         146.8249  142.7621  157.5563 C.ar    1  UNL1       -0.0031
     18 C         147.9811  142.6279  156.6103 C.ar    1  UNL1        0.0059
     19 C         147.7586  142.0997  155.2240 C.ar    1  UNL1        0.0748
     20 C         146.3798  141.7058  154.7839 C.ar    1  UNL1        0.0233
     21 C         146.4664  141.2204  153.3673 C.3     1  UNL1        0.2352
     22 O         147.8987  141.3142  152.9319 O.3     1  UNL1       -0.4404
     23 C         148.6973  141.8577  154.0795 C.2     1  UNL1        0.3413
     24 O         150.1753  142.1141  154.0819 O.2     1  UNL1       -0.2449
     25 C         139.1424  140.9057  163.8893 C.3     1  UNL1        0.1131
     26 C         139.4974  141.1413  165.3275 C.ar    1  UNL1        0.0062
     27 C         139.2592  140.0649  166.3448 C.ar    1  UNL1        0.0009
     28 C         139.6141  140.3005  167.7831 C.ar    1  UNL1        0.0386
     29 C         140.2072  141.6123  168.2040 C.ar    1  UNL1        0.1672
     30 N         140.4454  142.6886  167.1868 N.ar    1  UNL1       -0.2252
     31 C         140.0905  142.4531  165.7485 C.ar    1  UNL1        0.0968
     32 N         140.5622  141.8479  169.6423 N.ar    1  UNL1       -0.1708
     33 C         141.9474  142.0179  170.1921 C.ar    1  UNL1        0.2272
     34 N         141.8355  142.2299  171.6729 N.ar    1  UNL1       -0.1044
     35 N         140.3811  142.1909  172.0382 N.ar    1  UNL1       -0.0222
     36 N         139.5942  141.9548  170.7832 N.ar    1  UNL1       -0.0371
@<TRIPOS>BOND
     1    14    15    1
     2    15    16   ar
     3     1    16    1
     4     1     2    1
     5     2     3    1
     6     3     4    1
     7     4     5    1
     8     5     6    1
     9     6     7   am
    10     7     8    2
    11     7    25    1
    12    25    26    1
    13    26    27   ar
    14    27    28   ar
    15    28    29   ar
    16    29    32    1
    17    32    33   ar
    18    33    34   ar
    19    34    35   ar
    20    35    36   ar
    21    29    30   ar
    22    30    31   ar
    23     6     9    1
    24    10     9    1
    25    10    11    1
    26    11    12    1
    27    16    17   ar
    28    17    18   ar
    29    18    19   ar
    30    19    20   ar
    31    20    21    1
    32    21    22    1
    33    22    23    1
    34    23    24    2
    35    20    15   ar
    36    12     1    1
    37    23    19    1
    38    10     3    1
    39    31    26   ar
    40    36    32   ar
    41    12    13    1
@<TRIPOS>MOLECULE
*****
 36 41 0 0 0
SMALL
GASTEIGER

@<TRIPOS>ATOM
      1 C         142.1290  141.1450  164.7715 C.3     1  UNL1        0.0927
      2 C         141.2747  140.3836  163.8017 C.3     1  UNL1        0.0926
      3 N         141.7662  140.1307  162.4073 N.3     1  UNL1       -0.2684
      4 C         140.9118  139.3692  161.4375 C.3     1  UNL1        0.0939
      5 C         141.4033  139.1163  160.0431 C.3     1  UNL1        0.1107
      6 N         142.7491  139.6247  159.6184 N.am    1  UNL1       -0.2764
      7 C         143.2405  139.3717  158.2239 C.2     1  UNL1        0.2302
      8 O         144.5863  139.8802  157.7992 O.2     1  UNL1       -0.2745
      9 C         143.6034  140.3861  160.5881 C.3     1  UNL1        0.1107
     10 C         143.1119  140.6391  161.9826 C.3     1  UNL1        0.0934
     11 C         143.9662  141.4005  162.9523 C.3     1  UNL1        0.0867
     12 N         143.4748  141.6535  164.3468 N.3     1  UNL1       -0.2928
     13 H         143.4612  142.6653  164.4752 H       1  UNL1        0.1236
     14 C         142.7840  139.2086  166.9672 C.3     1  UNL1        0.0305
     15 C         141.9650  140.4298  167.2638 C.ar    1  UNL1       -0.0248
     16 C         141.6375  141.3980  166.1659 C.ar    1  UNL1       -0.0108
     17 C         140.8186  142.6192  166.4625 C.ar    1  UNL1       -0.0031
     18 C         140.3271  142.8722  167.8569 C.ar    1  UNL1        0.0059
     19 C         140.6546  141.9040  168.9549 C.ar    1  UNL1        0.0748
     20 C         141.4736  140.6828  168.6583 C.ar    1  UNL1        0.0233
     21 C         141.6366  139.9128  169.9351 C.3     1  UNL1        0.2352
     22 O         140.9184  140.6580  171.0208 O.3     1  UNL1       -0.4404
     23 C         140.3115  141.8887  170.4149 C.2     1  UNL1        0.3413
     24 O         139.5034  142.9225  171.1417 O.2     1  UNL1       -0.2449
     25 C         142.3862  138.6103  157.2542 C.3     1  UNL1        0.1131
     26 C         142.7518  137.2059  156.8748 C.ar    1  UNL1        0.0062
     27 C         142.9014  136.8343  155.4293 C.ar    1  UNL1        0.0009
     28 C         143.2670  135.4299  155.0499 C.ar    1  UNL1        0.0386
     29 C         143.4829  134.3971  156.1160 C.ar    1  UNL1        0.1672
     30 N         143.3333  134.7686  157.5615 N.ar    1  UNL1       -0.2252
     31 C         142.9677  136.1731  157.9409 C.ar    1  UNL1        0.0968
     32 N         143.8485  132.9927  155.7366 N.ar    1  UNL1       -0.1708
     33 C         143.2606  132.2038  154.6043 C.ar    1  UNL1        0.2272
     34 N         143.9149  130.8540  154.5908 N.ar    1  UNL1       -0.1044
     35 N         144.9073  130.8088  155.7148 N.ar    1  UNL1       -0.0222
     36 N         144.8663  132.1305  156.4229 N.ar    1  UNL1       -0.0371
@<TRIPOS>BOND
     1    14    15    1
     2    15    16   ar
     3     1    16    1
     4     1     2    1
     5     2     3    1
     6     3     4    1
     7     4     5    1
     8     5     6    1
     9     6     7   am
    10     7     8    2
    11     7    25    1
    12    25    26    1
    13    26    27   ar
    14    27    28   ar
    15    28    29   ar
    16    29    32    1
    17    32    33   ar
    18    33    34   ar
    19    34    35   ar
    20    35    36   ar
    21    29    30   ar
    22    30    31   ar
    23     6     9    1
    24    10     9    1
    25    10    11    1
    26    11    12    1
    27    16    17   ar
    28    17    18   ar
    29    18    19   ar
    30    19    20   ar
    31    20    21    1
    32    21    22    1
    33    22    23    1
    34    23    24    2
    35    20    15   ar
    36    12     1    1
    37    23    19    1
    38    10     3    1
    39    31    26   ar
    40    36    32   ar
    41    12    13    1
@<TRIPOS>MOLECULE
*****
 36 41 0 0 0
SMALL
GASTEIGER

@<TRIPOS>ATOM
      1 C         139.2918  140.6975  165.0519 C.3     1  UNL1        0.0927
      2 C         140.2845  140.0099  164.1621 C.3     1  UNL1        0.0926
      3 N         139.9977  139.8545  162.6981 N.3     1  UNL1       -0.2684
      4 C         140.9904  139.1669  161.8081 C.3     1  UNL1        0.0939
      5 C         140.7036  139.0116  160.3441 C.3     1  UNL1        0.1107
      6 N         139.4242  139.5438  159.7698 N.am    1  UNL1       -0.2764
      7 C         139.1374  139.3884  158.3056 C.2     1  UNL1        0.2302
      8 O         137.8580  139.9207  157.7314 O.2     1  UNL1       -0.2745
      9 C         138.4315  140.2314  160.6596 C.3     1  UNL1        0.1107
     10 C         138.7183  140.3868  162.1238 C.3     1  UNL1        0.0934
     11 C         137.7256  141.0744  163.0136 C.3     1  UNL1        0.0867
     12 N         138.0124  141.2297  164.4777 N.3     1  UNL1       -0.2928
     13 H         137.2515  140.7695  164.9772 H       1  UNL1        0.1236
     14 C         140.4777  143.2520  166.0854 C.3     1  UNL1        0.0305
     15 C         140.1715  142.1301  167.0328 C.ar    1  UNL1       -0.0248
     16 C         139.5786  140.8529  166.5161 C.ar    1  UNL1       -0.0108
     17 C         139.2724  139.7310  167.4635 C.ar    1  UNL1       -0.0031
     18 C         139.5591  139.8863  168.9276 C.ar    1  UNL1        0.0059
     19 C         140.1521  141.1636  169.4444 C.ar    1  UNL1        0.0748
     20 C         140.4583  142.2855  168.4970 C.ar    1  UNL1        0.0233
     21 C         141.0359  143.4188  169.2919 C.3     1  UNL1        0.2352
     22 O         141.0867  142.9973  170.7305 O.3     1  UNL1       -0.4404
     23 C         140.5404  141.6035  170.8247 C.2     1  UNL1        0.3413
     24 O         140.4062  140.7921  172.0792 O.2     1  UNL1       -0.2449
     25 C         140.1300  138.7008  157.4158 C.3     1  UNL1        0.1131
     26 C         141.4536  139.3460  157.1296 C.ar    1  UNL1        0.0062
     27 C         141.5064  140.7572  156.6238 C.ar    1  UNL1        0.0009
     28 C         142.8300  141.4023  156.3376 C.ar    1  UNL1        0.0386
     29 C         144.1008  140.6363  156.5572 C.ar    1  UNL1        0.1672
     30 N         144.0481  139.2251  157.0630 N.ar    1  UNL1       -0.2252
     31 C         142.7244  138.5799  157.3492 C.ar    1  UNL1        0.0968
     32 N         145.4244  141.2814  156.2711 N.ar    1  UNL1       -0.1708
     33 C         146.2181  141.1417  155.0060 C.ar    1  UNL1        0.2272
     34 N         147.4710  141.9535  155.1528 N.ar    1  UNL1       -0.1044
     35 N         147.4515  142.5949  156.5086 N.ar    1  UNL1       -0.0222
     36 N         146.1867  142.1795  157.1998 N.ar    1  UNL1       -0.0371
@<TRIPOS>BOND
     1    14    15    1
     2    15    16   ar
     3     1    16    1
     4     1     2    1
     5     2     3    1
     6     3     4    1
     7     4     5    1
     8     5     6    1
     9     6     7   am
    10     7     8    2
    11     7    25    1
    12    25    26    1
    13    26    27   ar
    14    27    28   ar
    15    28    29   ar
    16    29    32    1
    17    32    33   ar
    18    33    34   ar
    19    34    35   ar
    20    35    36   ar
    21    29    30   ar
    22    30    31   ar
    23     6     9    1
    24    10     9    1
    25    10    11    1
    26    11    12    1
    27    16    17   ar
    28    17    18   ar
    29    18    19   ar
    30    19    20   ar
    31    20    21    1
    32    21    22    1
    33    22    23    1
    34    23    24    2
    35    20    15   ar
    36    12     1    1
    37    23    19    1
    38    10     3    1
    39    31    26   ar
    40    36    32   ar
    41    12    13    1
@<TRIPOS>MOLECULE
*****
 36 41 0 0 0
SMALL
GASTEIGER

@<TRIPOS>ATOM
      1 C         143.5966  140.1768  158.3162 C.3     1  UNL1        0.0927
      2 C         142.7996  141.0950  159.1947 C.3     1  UNL1        0.0926
      3 N         141.8733  140.5269  160.2287 N.3     1  UNL1       -0.2684
      4 C         141.0763  141.4452  161.1072 C.3     1  UNL1        0.0939
      5 C         140.1500  140.8771  162.1412 C.3     1  UNL1        0.1107
      6 N         140.0206  139.3908  162.2967 N.am    1  UNL1       -0.2764
      7 C         139.0942  138.8228  163.3308 C.2     1  UNL1        0.2302
      8 O         138.9649  137.3365  163.4863 O.2     1  UNL1       -0.2745
      9 C         140.8176  138.4726  161.4183 C.3     1  UNL1        0.1107
     10 C         141.7439  139.0406  160.3842 C.3     1  UNL1        0.0934
     11 C         142.5409  138.1224  159.5058 C.3     1  UNL1        0.0867
     12 N         143.4672  138.6905  158.4718 N.3     1  UNL1       -0.2928
     13 H         143.1610  138.3256  157.5699 H       1  UNL1        0.1236
     14 C         143.4815  139.1794  155.4892 C.3     1  UNL1        0.0305
     15 C         144.4654  140.2461  155.8687 C.ar    1  UNL1       -0.0248
     16 C         144.5230  140.7448  157.2822 C.ar    1  UNL1       -0.0108
     17 C         145.5069  141.8115  157.6617 C.ar    1  UNL1       -0.0031
     18 C         146.4332  142.3796  156.6277 C.ar    1  UNL1        0.0059
     19 C         146.3757  141.8809  155.2141 C.ar    1  UNL1        0.0748
     20 C         145.3918  140.8142  154.8346 C.ar    1  UNL1        0.0233
     21 C         145.5648  140.5227  153.3735 C.3     1  UNL1        0.2352
     22 O         146.6556  141.4092  152.8499 O.3     1  UNL1       -0.4404
     23 C         147.1568  142.2486  153.9876 C.2     1  UNL1        0.3413
     24 O         148.2476  143.2755  153.9118 O.2     1  UNL1       -0.2449
     25 C         138.2973  139.7410  164.2092 C.3     1  UNL1        0.1131
     26 C         138.7921  140.0804  165.5840 C.ar    1  UNL1        0.0062
     27 C         139.6865  141.2674  165.7873 C.ar    1  UNL1        0.0009
     28 C         140.1813  141.6068  167.1621 C.ar    1  UNL1        0.0386
     29 C         139.7819  140.7592  168.3334 C.ar    1  UNL1        0.1672
     30 N         138.8876  139.5723  168.1301 N.ar    1  UNL1       -0.2252
     31 C         138.3927  139.2329  166.7553 C.ar    1  UNL1        0.0968
     32 N         140.2767  141.0986  169.7082 N.ar    1  UNL1       -0.1708
     33 C         141.5119  140.5520  170.3605 C.ar    1  UNL1        0.2272
     34 N         141.6218  141.1599  171.7276 N.ar    1  UNL1       -0.1044
     35 N         140.4545  142.0821  171.9200 N.ar    1  UNL1       -0.0222
     36 N         139.6232  142.0443  170.6720 N.ar    1  UNL1       -0.0371
@<TRIPOS>BOND
     1    14    15    1
     2    15    16   ar
     3     1    16    1
     4     1     2    1
     5     2     3    1
     6     3     4    1
     7     4     5    1
     8     5     6    1
     9     6     7   am
    10     7     8    2
    11     7    25    1
    12    25    26    1
    13    26    27   ar
    14    27    28   ar
    15    28    29   ar
    16    29    32    1
    17    32    33   ar
    18    33    34   ar
    19    34    35   ar
    20    35    36   ar
    21    29    30   ar
    22    30    31   ar
    23     6     9    1
    24    10     9    1
    25    10    11    1
    26    11    12    1
    27    16    17   ar
    28    17    18   ar
    29    18    19   ar
    30    19    20   ar
    31    20    21    1
    32    21    22    1
    33    22    23    1
    34    23    24    2
    35    20    15   ar
    36    12     1    1
    37    23    19    1
    38    10     3    1
    39    31    26   ar
    40    36    32   ar
    41    12    13    1
@<TRIPOS>MOLECULE
*****
 36 41 0 0 0
SMALL
GASTEIGER

@<TRIPOS>ATOM
      1 C         142.4270  140.4701  164.8193 C.3     1  UNL1        0.0927
      2 C         141.4706  139.6648  163.9907 C.3     1  UNL1        0.0926
      3 N         141.7549  139.4257  162.5375 N.3     1  UNL1       -0.2684
      4 C         140.7985  138.6203  161.7087 C.3     1  UNL1        0.0939
      5 C         141.0828  138.3812  160.2555 C.3     1  UNL1        0.1107
      6 N         142.3235  138.9474  159.6309 N.am    1  UNL1       -0.2764
      7 C         142.6077  138.7083  158.1776 C.2     1  UNL1        0.2302
      8 O         143.8484  139.2745  157.5530 O.2     1  UNL1       -0.2745
      9 C         143.2798  139.7528  160.4595 C.3     1  UNL1        0.1107
     10 C         142.9955  139.9919  161.9129 C.3     1  UNL1        0.0934
     11 C         143.9519  140.7973  162.7415 C.3     1  UNL1        0.0867
     12 N         143.6676  141.0364  164.1948 N.3     1  UNL1       -0.2928
     13 H         143.6275  142.0473  164.3245 H       1  UNL1        0.1236
     14 C         140.8761  142.8949  165.6653 C.3     1  UNL1        0.0305
     15 C         141.3673  141.9216  166.6956 C.ar    1  UNL1       -0.0248
     16 C         142.1427  140.7093  166.2727 C.ar    1  UNL1       -0.0108
     17 C         142.6339  139.7360  167.3030 C.ar    1  UNL1       -0.0031
     18 C         142.3496  139.9751  168.7562 C.ar    1  UNL1        0.0059
     19 C         141.5742  141.1875  169.1793 C.ar    1  UNL1        0.0748
     20 C         141.0830  142.1608  168.1489 C.ar    1  UNL1        0.0233
     21 C         140.3494  143.2585  168.8608 C.3     1  UNL1        0.2352
     22 O         140.3872  142.9637  170.3310 O.3     1  UNL1       -0.4404
     23 C         141.1441  141.6837  170.5278 C.2     1  UNL1        0.3413
     24 O         141.4222  141.0171  171.8425 O.2     1  UNL1       -0.2449
     25 C         141.6514  137.9029  157.3489 C.3     1  UNL1        0.1131
     26 C         142.0765  136.5783  156.7881 C.ar    1  UNL1        0.0062
     27 C         141.2787  135.9371  155.6916 C.ar    1  UNL1        0.0009
     28 C         141.7038  134.6125  155.1308 C.ar    1  UNL1        0.0386
     29 C         142.9268  133.9289  155.6665 C.ar    1  UNL1        0.1672
     30 N         143.7247  134.5700  156.7631 N.ar    1  UNL1       -0.2252
     31 C         143.2995  135.8947  157.3239 C.ar    1  UNL1        0.0968
     32 N         143.3520  132.6043  155.1057 N.ar    1  UNL1       -0.1708
     33 C         142.8531  131.9839  153.8344 C.ar    1  UNL1        0.2272
     34 N         143.5435  130.6636  153.6607 N.ar    1  UNL1       -0.1044
     35 N         144.4691  130.4679  154.8248 N.ar    1  UNL1       -0.0222
     36 N         144.3508  131.6673  155.7179 N.ar    1  UNL1       -0.0371
@<TRIPOS>BOND
     1    14    15    1
     2    15    16   ar
     3     1    16    1
     4     1     2    1
     5     2     3    1
     6     3     4    1
     7     4     5    1
     8     5     6    1
     9     6     7   am
    10     7     8    2
    11     7    25    1
    12    25    26    1
    13    26    27   ar
    14    27    28   ar
    15    28    29   ar
    16    29    32    1
    17    32    33   ar
    18    33    34   ar
    19    34    35   ar
    20    35    36   ar
    21    29    30   ar
    22    30    31   ar
    23     6     9    1
    24    10     9    1
    25    10    11    1
    26    11    12    1
    27    16    17   ar
    28    17    18   ar
    29    18    19   ar
    30    19    20   ar
    31    20    21    1
    32    21    22    1
    33    22    23    1
    34    23    24    2
    35    20    15   ar
    36    12     1    1
    37    23    19    1
    38    10     3    1
    39    31    26   ar
    40    36    32   ar
    41    12    13    1
@<TRIPOS>MOLECULE
*****
 36 41 0 0 0
SMALL
GASTEIGER

@<TRIPOS>ATOM
      1 C         138.9794  147.1033  155.5195 C.3     1  UNL1        0.0927
      2 C         139.9256  146.4338  156.4715 C.3     1  UNL1        0.0926
      3 N         139.7877  144.9682  156.7595 N.3     1  UNL1       -0.2684
      4 C         140.7340  144.2986  157.7115 C.3     1  UNL1        0.0939
      5 C         140.5960  142.8330  157.9995 C.3     1  UNL1        0.1107
      6 N         139.5118  142.0370  157.3356 N.am    1  UNL1       -0.2764
      7 C         139.3739  140.5713  157.6236 C.2     1  UNL1        0.2302
      8 O         138.2897  139.7753  156.9597 O.2     1  UNL1       -0.2745
      9 C         138.5655  142.7065  156.3836 C.3     1  UNL1        0.1107
     10 C         138.7035  144.1722  156.0955 C.3     1  UNL1        0.0934
     11 C         137.7572  144.8417  155.1436 C.3     1  UNL1        0.0867
     12 N         137.8952  146.3073  154.8556 N.3     1  UNL1       -0.2928
     13 H         137.0098  146.7428  155.1141 H       1  UNL1        0.1236
     14 C         140.5715  148.0229  153.1489 C.3     1  UNL1        0.0305
     15 C         139.9134  149.0287  154.0462 C.ar    1  UNL1       -0.0248
     16 C         139.1173  148.5690  155.2314 C.ar    1  UNL1       -0.0108
     17 C         138.4591  149.5748  156.1287 C.ar    1  UNL1       -0.0031
     18 C         138.5970  151.0404  155.8407 C.ar    1  UNL1        0.0059
     19 C         139.3931  151.5002  154.6554 C.ar    1  UNL1        0.0748
     20 C         140.0513  150.4944  153.7581 C.ar    1  UNL1        0.0233
     21 C         140.7675  151.2407  152.6719 C.3     1  UNL1        0.2352
     22 O         140.5520  152.7079  152.8978 O.3     1  UNL1       -0.4404
     23 C         139.7026  152.8682  154.1237 C.2     1  UNL1        0.3413
     24 O         139.2432  154.1684  154.7141 O.2     1  UNL1       -0.2449
     25 C         140.3201  139.9018  158.5756 C.3     1  UNL1        0.1131
     26 C         139.8979  139.6361  159.9901 C.ar    1  UNL1        0.0062
     27 C         139.4465  138.2635  160.3929 C.ar    1  UNL1        0.0009
     28 C         139.0242  137.9978  161.8075 C.ar    1  UNL1        0.0386
     29 C         139.0533  139.1047  162.8194 C.ar    1  UNL1        0.1672
     30 N         139.5046  140.4773  162.4166 N.ar    1  UNL1       -0.2252
     31 C         139.9269  140.7430  161.0020 C.ar    1  UNL1        0.0968
     32 N         138.6310  138.8391  164.2339 N.ar    1  UNL1       -0.1708
     33 C         138.7357  137.5272  164.9538 C.ar    1  UNL1        0.2272
     34 N         138.1993  137.7160  166.3419 N.ar    1  UNL1       -0.1044
     35 N         137.7630  139.1446  166.4799 N.ar    1  UNL1       -0.0222
     36 N         138.0298  139.8386  165.1772 N.ar    1  UNL1       -0.0371
@<TRIPOS>BOND
     1    14    15    1
     2    15    16   ar
     3     1    16    1
     4     1     2    1
     5     2     3    1
     6     3     4    1
     7     4     5    1
     8     5     6    1
     9     6     7   am
    10     7     8    2
    11     7    25    1
    12    25    26    1
    13    26    27   ar
    14    27    28   ar
    15    28    29   ar
    16    29    32    1
    17    32    33   ar
    18    33    34   ar
    19    34    35   ar
    20    35    36   ar
    21    29    30   ar
    22    30    31   ar
    23     6     9    1
    24    10     9    1
    25    10    11    1
    26    11    12    1
    27    16    17   ar
    28    17    18   ar
    29    18    19   ar
    30    19    20   ar
    31    20    21    1
    32    21    22    1
    33    22    23    1
    34    23    24    2
    35    20    15   ar
    36    12     1    1
    37    23    19    1
    38    10     3    1
    39    31    26   ar
    40    36    32   ar
    41    12    13    1
