@<TRIPOS>MOLECULE
*****
 30 34 0 0 0
SMALL
GASTEIGER

@<TRIPOS>ATOM
      1 C         137.9907  138.5880  166.9688 C.3     1  UNL1        0.0246
      2 C         139.2217  139.1818  166.3508 C.3     1  UNL1        0.0888
      3 C         139.6125  138.8095  164.9513 C.3     1  UNL1        0.0274
      4 C         140.8436  139.4033  164.3333 C.3     1  UNL1        0.0311
      5 C         141.6838  140.3693  165.1147 C.ar    1  UNL1        0.0093
      6 C         142.9149  140.9631  164.4967 C.ar    1  UNL1        0.0730
      7 C         143.7551  141.9291  165.2782 C.ar    1  UNL1        0.1531
      8 F         144.9862  142.5229  164.6602 F       1  UNL1       -0.2029
      9 C         143.3643  142.3014  166.6778 C.ar    1  UNL1        0.0323
     10 C         142.1333  141.7076  167.2958 C.ar    1  UNL1        0.0181
     11 C         141.7424  142.0799  168.6953 C.ar    1  UNL1        0.0074
     12 C         140.5114  141.4861  169.3133 C.ar    1  UNL1        0.0702
     13 C         139.6711  140.5201  168.5318 C.ar    1  UNL1        0.2618
     14 O         138.4401  139.9263  169.1499 O.2     1  UNL1       -0.2669
     15 N         140.0619  140.1478  167.1323 N.ar    1  UNL1       -0.2976
     16 C         141.2930  140.7416  166.5142 C.ar    1  UNL1        0.0597
     17 N         143.3057  140.5909  163.0972 N.pl3   1  UNL1       -0.3059
     18 C         143.9256  139.2933  162.6705 C.3     1  UNL1        0.0909
     19 C         144.1483  139.3512  161.1882 C.3     1  UNL1        0.0244
     20 C         143.6660  140.6847  160.6988 C.3     1  UNL1        0.0344
     21 C         143.1452  141.4508  161.8787 C.3     1  UNL1        0.0921
     22 C         143.6987  141.1672  159.2789 C.3     1  UNL1        0.0406
     23 N         144.0322  139.8849  158.5757 N.3     1  UNL1       -0.3231
     24 C         143.6156  142.0950  158.1033 C.3     1  UNL1        0.0156
     25 C         143.3766  142.6170  159.4891 C.3     1  UNL1        0.0156
     26 H         144.1241  139.1352  159.2611 H       1  UNL1        0.1188
     27 H         144.9114  139.9931  158.0701 H       1  UNL1        0.1188
     28 C         140.1206  141.8584  170.7129 C.2     1  UNL1        0.0775
     29 O         139.2048  143.0222  170.9515 O.co2   1  UNL1       -0.5444
     30 O         140.6456  141.0669  171.8739 O.co2   1  UNL1       -0.5444
@<TRIPOS>UNITY_ATOM_ATTR
29 1
charge -1
@<TRIPOS>BOND
     1     2     1    1
     2     2     3    1
     3     3     4    1
     4     4     5    1
     5     5     6   ar
     6     6    17    1
     7    17    18    1
     8    18    19    1
     9    19    20    1
    10    20    22    1
    11    22    23    1
    12    22    24    1
    13    24    25    1
    14    20    21    1
    15     6     7   ar
    16     7     8    1
    17     7     9   ar
    18     9    10   ar
    19    10    11   ar
    20    11    12   ar
    21    12    28    1
    22    28    29   ar
    23    28    30   ar
    24    12    13   ar
    25    13    14    2
    26    13    15   ar
    27    15    16   ar
    28    15     2    1
    29    16     5   ar
    30    21    17    1
    31    16    10   ar
    32    25    22    1
    33    23    26    1
    34    23    27    1
@<TRIPOS>MOLECULE
*****
 30 34 0 0 0
SMALL
GASTEIGER

@<TRIPOS>ATOM
      1 C         137.3867  138.3576  167.6807 C.3     1  UNL1        0.0246
      2 C         138.4089  138.9855  166.7803 C.3     1  UNL1        0.0888
      3 C         138.4698  138.6008  165.3318 C.3     1  UNL1        0.0274
      4 C         139.4921  139.2288  164.4313 C.3     1  UNL1        0.0311
      5 C         140.4534  140.2413  164.9794 C.ar    1  UNL1        0.0093
      6 C         141.4756  140.8693  164.0790 C.ar    1  UNL1        0.0730
      7 C         142.4370  141.8818  164.6271 C.ar    1  UNL1        0.1531
      8 F         143.4592  142.5098  163.7267 F       1  UNL1       -0.2029
      9 C         142.3761  142.2666  166.0757 C.ar    1  UNL1        0.0323
     10 C         141.3539  141.6386  166.9761 C.ar    1  UNL1        0.0181
     11 C         141.2930  142.0233  168.4247 C.ar    1  UNL1        0.0074
     12 C         140.2708  141.3954  169.3251 C.ar    1  UNL1        0.0702
     13 C         139.3094  140.3828  168.7770 C.ar    1  UNL1        0.2618
     14 O         138.2872  139.7549  169.6774 O.2     1  UNL1       -0.2669
     15 N         139.3703  139.9981  167.3284 N.ar    1  UNL1       -0.2976
     16 C         140.3925  140.6260  166.4280 C.ar    1  UNL1        0.0597
     17 N         141.5365  140.4846  162.6305 N.pl3   1  UNL1       -0.3059
     18 C         140.9753  141.2732  161.4844 C.3     1  UNL1        0.0909
     19 C         141.2612  140.5198  160.2193 C.3     1  UNL1        0.0244
     20 C         141.9991  139.2656  160.5833 C.3     1  UNL1        0.0344
     21 C         142.1692  139.2438  162.0735 C.3     1  UNL1        0.0921
     22 C         142.4821  138.2172  159.6254 C.3     1  UNL1        0.0406
     23 N         143.1116  137.2546  160.5883 N.3     1  UNL1       -0.3231
     24 C         142.7464  137.5031  158.3331 C.3     1  UNL1        0.0156
     25 C         142.0203  138.8156  158.3298 C.3     1  UNL1        0.0156
     26 H         143.0110  137.6101  161.5391 H       1  UNL1        0.1188
     27 H         144.1019  137.1510  160.3671 H       1  UNL1        0.1188
     28 C         140.2099  141.7801  170.7737 C.2     1  UNL1        0.0775
     29 O         140.7972  140.8747  171.8154 O.co2   1  UNL1       -0.5444
     30 O         139.5618  143.0702  171.1804 O.co2   1  UNL1       -0.5444
@<TRIPOS>UNITY_ATOM_ATTR
29 1
charge -1
@<TRIPOS>BOND
     1     2     1    1
     2     2     3    1
     3     3     4    1
     4     4     5    1
     5     5     6   ar
     6     6    17    1
     7    17    18    1
     8    18    19    1
     9    19    20    1
    10    20    22    1
    11    22    23    1
    12    22    24    1
    13    24    25    1
    14    20    21    1
    15     6     7   ar
    16     7     8    1
    17     7     9   ar
    18     9    10   ar
    19    10    11   ar
    20    11    12   ar
    21    12    28    1
    22    28    29   ar
    23    28    30   ar
    24    12    13   ar
    25    13    14    2
    26    13    15   ar
    27    15    16   ar
    28    15     2    1
    29    16     5   ar
    30    21    17    1
    31    16    10   ar
    32    25    22    1
    33    23    26    1
    34    23    27    1
@<TRIPOS>MOLECULE
*****
 30 34 0 0 0
SMALL
GASTEIGER

@<TRIPOS>ATOM
      1 C         137.3713  138.3829  167.5631 C.3     1  UNL1        0.0246
      2 C         138.5726  138.7979  166.7665 C.3     1  UNL1        0.0888
      3 C         138.7606  138.2839  165.3700 C.3     1  UNL1        0.0274
      4 C         139.9619  138.6988  164.5734 C.3     1  UNL1        0.0311
      5 C         140.9753  139.6278  165.1733 C.ar    1  UNL1        0.0093
      6 C         142.1767  140.0428  164.3767 C.ar    1  UNL1        0.0730
      7 C         143.1901  140.9718  164.9766 C.ar    1  UNL1        0.1531
      8 F         144.3914  141.3867  164.1800 F       1  UNL1       -0.2029
      9 C         143.0021  141.4858  166.3733 C.ar    1  UNL1        0.0323
     10 C         141.8008  141.0709  167.1699 C.ar    1  UNL1        0.0181
     11 C         141.6128  141.5849  168.5664 C.ar    1  UNL1        0.0074
     12 C         140.4115  141.1699  169.3630 C.ar    1  UNL1        0.0702
     13 C         139.3981  140.2410  168.7631 C.ar    1  UNL1        0.2618
     14 O         138.1968  139.8260  169.5597 O.2     1  UNL1       -0.2669
     15 N         139.5860  139.7269  167.3665 N.ar    1  UNL1       -0.2976
     16 C         140.7874  140.1418  166.5699 C.ar    1  UNL1        0.0597
     17 N         142.3646  139.5287  162.9802 N.pl3   1  UNL1       -0.3059
     18 C         143.0912  138.2750  162.5924 C.3     1  UNL1        0.0909
     19 C         143.0347  138.1496  161.0987 C.3     1  UNL1        0.0244
     20 C         142.2731  139.3258  160.5632 C.3     1  UNL1        0.0344
     21 C         141.8590  140.1781  161.7261 C.3     1  UNL1        0.0921
     22 C         141.9776  139.6012  159.1187 C.3     1  UNL1        0.0406
     23 N         141.0872  140.8002  159.2590 N.3     1  UNL1       -0.3231
     24 C         141.9912  139.4603  157.6255 C.3     1  UNL1        0.0156
     25 C         142.7653  138.4979  158.4767 C.3     1  UNL1        0.0156
     26 H         140.9771  141.0282  160.2471 H       1  UNL1        0.1188
     27 H         140.1740  140.5949  158.8537 H       1  UNL1        0.1188
     28 C         140.2236  141.6840  170.7597 C.2     1  UNL1        0.0775
     29 O         139.5565  143.0079  170.9881 O.co2   1  UNL1       -0.5444
     30 O         140.7028  140.8741  171.9278 O.co2   1  UNL1       -0.5444
@<TRIPOS>UNITY_ATOM_ATTR
29 1
charge -1
@<TRIPOS>BOND
     1     2     1    1
     2     2     3    1
     3     3     4    1
     4     4     5    1
     5     5     6   ar
     6     6    17    1
     7    17    18    1
     8    18    19    1
     9    19    20    1
    10    20    22    1
    11    22    23    1
    12    22    24    1
    13    24    25    1
    14    20    21    1
    15     6     7   ar
    16     7     8    1
    17     7     9   ar
    18     9    10   ar
    19    10    11   ar
    20    11    12   ar
    21    12    28    1
    22    28    29   ar
    23    28    30   ar
    24    12    13   ar
    25    13    14    2
    26    13    15   ar
    27    15    16   ar
    28    15     2    1
    29    16     5   ar
    30    21    17    1
    31    16    10   ar
    32    25    22    1
    33    23    26    1
    34    23    27    1
@<TRIPOS>MOLECULE
*****
 30 34 0 0 0
SMALL
GASTEIGER

@<TRIPOS>ATOM
      1 C         143.7061  138.3741  166.5214 C.3     1  UNL1        0.0246
      2 C         142.9713  139.5544  165.9585 C.3     1  UNL1        0.0888
      3 C         143.1179  139.9071  164.5080 C.3     1  UNL1        0.0274
      4 C         142.3831  141.0874  163.9450 C.3     1  UNL1        0.0311
      5 C         141.5016  141.9151  164.8326 C.ar    1  UNL1        0.0093
      6 C         140.7668  143.0954  164.2697 C.ar    1  UNL1        0.0730
      7 C         139.8853  143.9231  165.1573 C.ar    1  UNL1        0.1531
      8 F         139.1505  145.1034  164.5944 F       1  UNL1       -0.2029
      9 C         139.7386  143.5705  166.6079 C.ar    1  UNL1        0.0323
     10 C         140.4734  142.3901  167.1709 C.ar    1  UNL1        0.0181
     11 C         140.3268  142.0375  168.6214 C.ar    1  UNL1        0.0074
     12 C         141.0616  140.8572  169.1843 C.ar    1  UNL1        0.0702
     13 C         141.9431  140.0295  168.2967 C.ar    1  UNL1        0.2618
     14 O         142.6779  138.8492  168.8596 O.2     1  UNL1       -0.2669
     15 N         142.0898  140.3821  166.8461 N.ar    1  UNL1       -0.2976
     16 C         141.3550  141.5624  166.2832 C.ar    1  UNL1        0.0597
     17 N         140.9135  143.4480  162.8192 N.pl3   1  UNL1       -0.3059
     18 C         142.0606  144.1942  162.2048 C.3     1  UNL1        0.0909
     19 C         141.7949  144.3238  160.7342 C.3     1  UNL1        0.0244
     20 C         140.4835  143.6577  160.4396 C.3     1  UNL1        0.0344
     21 C         139.9388  143.1165  161.7283 C.3     1  UNL1        0.0921
     22 C         139.8314  143.5515  159.0930 C.3     1  UNL1        0.0406
     23 N         138.5122  142.9570  159.4886 N.3     1  UNL1       -0.3231
     24 C         139.6373  143.6518  157.6091 C.3     1  UNL1        0.0156
     25 C         140.9240  144.1092  158.2298 C.3     1  UNL1        0.0156
     26 H         138.4887  142.8241  160.4996 H       1  UNL1        0.1188
     27 H         138.3922  142.0566  159.0245 H       1  UNL1        0.1188
     28 C         140.9149  140.5046  170.6349 C.2     1  UNL1        0.0775
     29 O         141.9095  141.0148  171.6351 O.co2   1  UNL1       -0.5444
     30 O         139.7736  139.6418  171.0853 O.co2   1  UNL1       -0.5444
@<TRIPOS>UNITY_ATOM_ATTR
29 1
charge -1
@<TRIPOS>BOND
     1     2     1    1
     2     2     3    1
     3     3     4    1
     4     4     5    1
     5     5     6   ar
     6     6    17    1
     7    17    18    1
     8    18    19    1
     9    19    20    1
    10    20    22    1
    11    22    23    1
    12    22    24    1
    13    24    25    1
    14    20    21    1
    15     6     7   ar
    16     7     8    1
    17     7     9   ar
    18     9    10   ar
    19    10    11   ar
    20    11    12   ar
    21    12    28    1
    22    28    29   ar
    23    28    30   ar
    24    12    13   ar
    25    13    14    2
    26    13    15   ar
    27    15    16   ar
    28    15     2    1
    29    16     5   ar
    30    21    17    1
    31    16    10   ar
    32    25    22    1
    33    23    26    1
    34    23    27    1
@<TRIPOS>MOLECULE
*****
 30 34 0 0 0
SMALL
GASTEIGER

@<TRIPOS>ATOM
      1 C         138.1764  139.7825  165.6102 C.3     1  UNL1        0.0246
      2 C         139.0713  140.8060  164.9766 C.3     1  UNL1        0.0888
      3 C         138.6581  141.4761  163.6999 C.3     1  UNL1        0.0274
      4 C         139.5530  142.4997  163.0663 C.3     1  UNL1        0.0311
      5 C         140.8612  142.8531  163.7094 C.ar    1  UNL1        0.0093
      6 C         141.7562  143.8766  163.0758 C.ar    1  UNL1        0.0730
      7 C         143.0644  144.2300  163.7189 C.ar    1  UNL1        0.1531
      8 F         143.9593  145.2535  163.0853 F       1  UNL1       -0.2029
      9 C         143.4777  143.5598  164.9957 C.ar    1  UNL1        0.0323
     10 C         142.5828  142.5363  165.6293 C.ar    1  UNL1        0.0181
     11 C         142.9961  141.8661  166.9060 C.ar    1  UNL1        0.0074
     12 C         142.1011  140.8426  167.5396 C.ar    1  UNL1        0.0702
     13 C         140.7929  140.4892  166.8965 C.ar    1  UNL1        0.2618
     14 O         139.8980  139.4657  167.5301 O.2     1  UNL1       -0.2669
     15 N         140.3796  141.1594  165.6197 N.ar    1  UNL1       -0.2976
     16 C         141.2745  142.1829  164.9861 C.ar    1  UNL1        0.0597
     17 N         141.3429  144.5467  161.7991 N.pl3   1  UNL1       -0.3059
     18 C         140.2340  145.5453  161.6463 C.3     1  UNL1        0.0909
     19 C         140.1716  145.9518  160.2037 C.3     1  UNL1        0.0244
     20 C         141.2420  145.2044  159.4649 C.3     1  UNL1        0.0344
     21 C         141.9659  144.3360  160.4509 C.3     1  UNL1        0.0921
     22 C         141.5368  145.3073  157.9978 C.3     1  UNL1        0.0406
     23 N         142.8892  144.6596  157.9577 N.3     1  UNL1       -0.3231
     24 C         141.3619  145.6350  156.5446 C.3     1  UNL1        0.0156
     25 C         140.2868  145.9907  157.5283 C.3     1  UNL1        0.0156
     26 H         143.1567  144.3726  158.8993 H       1  UNL1        0.1188
     27 H         143.5739  145.3242  157.5974 H       1  UNL1        0.1188
     28 C         142.5145  140.1725  168.8164 C.2     1  UNL1        0.0775
     29 O         143.1177  138.7996  168.7817 O.co2   1  UNL1       -0.5444
     30 O         142.3245  140.8752  170.1279 O.co2   1  UNL1       -0.5444
@<TRIPOS>UNITY_ATOM_ATTR
29 1
charge -1
@<TRIPOS>BOND
     1     2     1    1
     2     2     3    1
     3     3     4    1
     4     4     5    1
     5     5     6   ar
     6     6    17    1
     7    17    18    1
     8    18    19    1
     9    19    20    1
    10    20    22    1
    11    22    23    1
    12    22    24    1
    13    24    25    1
    14    20    21    1
    15     6     7   ar
    16     7     8    1
    17     7     9   ar
    18     9    10   ar
    19    10    11   ar
    20    11    12   ar
    21    12    28    1
    22    28    29   ar
    23    28    30   ar
    24    12    13   ar
    25    13    14    2
    26    13    15   ar
    27    15    16   ar
    28    15     2    1
    29    16     5   ar
    30    21    17    1
    31    16    10   ar
    32    25    22    1
    33    23    26    1
    34    23    27    1
@<TRIPOS>MOLECULE
*****
 30 34 0 0 0
SMALL
GASTEIGER

@<TRIPOS>ATOM
      1 C         138.4544  139.1564  166.9906 C.3     1  UNL1        0.0246
      2 C         139.4264  139.9574  166.1759 C.3     1  UNL1        0.0888
      3 C         139.1890  140.1573  164.7084 C.3     1  UNL1        0.0274
      4 C         140.1610  140.9583  163.8937 C.3     1  UNL1        0.0311
      5 C         141.3703  141.5592  164.5465 C.ar    1  UNL1        0.0093
      6 C         142.3423  142.3602  163.7318 C.ar    1  UNL1        0.0730
      7 C         143.5517  142.9612  164.3846 C.ar    1  UNL1        0.1531
      8 F         144.5237  143.7621  163.5698 F       1  UNL1       -0.2029
      9 C         143.7891  142.7612  165.8521 C.ar    1  UNL1        0.0323
     10 C         142.8172  141.9603  166.6669 C.ar    1  UNL1        0.0181
     11 C         143.0546  141.7603  168.1344 C.ar    1  UNL1        0.0074
     12 C         142.0826  140.9594  168.9491 C.ar    1  UNL1        0.0702
     13 C         140.8732  140.3584  168.2963 C.ar    1  UNL1        0.2618
     14 O         139.9012  139.5575  169.1110 O.2     1  UNL1       -0.2669
     15 N         140.6358  140.5583  166.8287 N.ar    1  UNL1       -0.2976
     16 C         141.6077  141.3593  166.0140 C.ar    1  UNL1        0.0597
     17 N         142.1049  142.5601  162.2643 N.pl3   1  UNL1       -0.3059
     18 C         142.4075  141.5696  161.1791 C.3     1  UNL1        0.0909
     19 C         142.0129  142.1830  159.8684 C.3     1  UNL1        0.0244
     20 C         141.4663  143.5526  160.1434 C.3     1  UNL1        0.0344
     21 C         141.5232  143.7857  161.6241 C.3     1  UNL1        0.0921
     22 C         140.9530  144.5194  159.1178 C.3     1  UNL1        0.0406
     23 N         141.8714  145.6784  159.3697 N.3     1  UNL1       -0.3231
     24 C         140.1209  145.0837  158.0047 C.3     1  UNL1        0.0156
     25 C         139.8564  143.6962  158.5097 C.3     1  UNL1        0.0156
     26 H         142.5175  145.4427  160.1229 H       1  UNL1        0.1188
     27 H         141.3223  146.4956  159.6360 H       1  UNL1        0.1188
     28 C         142.3201  140.7594  170.4166 C.2     1  UNL1        0.0775
     29 O         141.4914  141.5067  171.4191 O.co2   1  UNL1       -0.5444
     30 O         143.3862  139.8122  170.8817 O.co2   1  UNL1       -0.5444
@<TRIPOS>UNITY_ATOM_ATTR
29 1
charge -1
@<TRIPOS>BOND
     1     2     1    1
     2     2     3    1
     3     3     4    1
     4     4     5    1
     5     5     6   ar
     6     6    17    1
     7    17    18    1
     8    18    19    1
     9    19    20    1
    10    20    22    1
    11    22    23    1
    12    22    24    1
    13    24    25    1
    14    20    21    1
    15     6     7   ar
    16     7     8    1
    17     7     9   ar
    18     9    10   ar
    19    10    11   ar
    20    11    12   ar
    21    12    28    1
    22    28    29   ar
    23    28    30   ar
    24    12    13   ar
    25    13    14    2
    26    13    15   ar
    27    15    16   ar
    28    15     2    1
    29    16     5   ar
    30    21    17    1
    31    16    10   ar
    32    25    22    1
    33    23    26    1
    34    23    27    1
@<TRIPOS>MOLECULE
*****
 30 34 0 0 0
SMALL
GASTEIGER

@<TRIPOS>ATOM
      1 C         143.4177  142.3811  167.7983 C.3     1  UNL1        0.0246
      2 C         142.7619  141.5159  166.7632 C.3     1  UNL1        0.0888
      3 C         143.4150  141.3188  165.4274 C.3     1  UNL1        0.0274
      4 C         142.7592  140.4536  164.3923 C.3     1  UNL1        0.0311
      5 C         141.4503  139.7857  164.6930 C.ar    1  UNL1        0.0093
      6 C         140.7944  138.9205  163.6579 C.ar    1  UNL1        0.0730
      7 C         139.4855  138.2525  163.9586 C.ar    1  UNL1        0.1531
      8 F         138.8297  137.3874  162.9235 F       1  UNL1       -0.2029
      9 C         138.8323  138.4497  165.2945 C.ar    1  UNL1        0.0323
     10 C         139.4881  139.3149  166.3296 C.ar    1  UNL1        0.0181
     11 C         138.8350  139.5120  167.6655 C.ar    1  UNL1        0.0074
     12 C         139.4908  140.3772  168.7006 C.ar    1  UNL1        0.0702
     13 C         140.7998  141.0452  168.3998 C.ar    1  UNL1        0.2618
     14 O         141.4556  141.9103  169.4349 O.2     1  UNL1       -0.2669
     15 N         141.4530  140.8480  167.0639 N.ar    1  UNL1       -0.2976
     16 C         140.7971  139.9828  166.0288 C.ar    1  UNL1        0.0597
     17 N         141.4476  138.7233  162.3221 N.pl3   1  UNL1       -0.3059
     18 C         142.5173  137.7213  162.0029 C.3     1  UNL1        0.0909
     19 C         142.8765  137.8722  160.5544 C.3     1  UNL1        0.0244
     20 C         142.0289  138.9675  159.9782 C.3     1  UNL1        0.0344
     21 C         141.1457  139.4935  161.0708 C.3     1  UNL1        0.0921
     22 C         142.0590  139.4517  158.5589 C.3     1  UNL1        0.0406
     23 N         143.2126  138.6490  158.0343 N.3     1  UNL1       -0.3231
     24 C         141.6887  140.2146  157.3217 C.3     1  UNL1        0.0156
     25 C         140.9160  140.4225  158.5905 C.3     1  UNL1        0.0156
     26 H         143.5848  138.0611  158.7801 H       1  UNL1        0.1188
     27 H         143.9423  139.2795  157.7021 H       1  UNL1        0.1188
     28 C         138.8377  140.5744  170.0365 C.2     1  UNL1        0.0775
     29 O         138.1660  139.4207  170.7205 O.co2   1  UNL1       -0.5444
     30 O         138.8562  141.9252  170.6883 O.co2   1  UNL1       -0.5444
@<TRIPOS>UNITY_ATOM_ATTR
29 1
charge -1
@<TRIPOS>BOND
     1     2     1    1
     2     2     3    1
     3     3     4    1
     4     4     5    1
     5     5     6   ar
     6     6    17    1
     7    17    18    1
     8    18    19    1
     9    19    20    1
    10    20    22    1
    11    22    23    1
    12    22    24    1
    13    24    25    1
    14    20    21    1
    15     6     7   ar
    16     7     8    1
    17     7     9   ar
    18     9    10   ar
    19    10    11   ar
    20    11    12   ar
    21    12    28    1
    22    28    29   ar
    23    28    30   ar
    24    12    13   ar
    25    13    14    2
    26    13    15   ar
    27    15    16   ar
    28    15     2    1
    29    16     5   ar
    30    21    17    1
    31    16    10   ar
    32    25    22    1
    33    23    26    1
    34    23    27    1
@<TRIPOS>MOLECULE
*****
 30 34 0 0 0
SMALL
GASTEIGER

@<TRIPOS>ATOM
      1 C         137.6798  138.4674  167.0791 C.3     1  UNL1        0.0246
      2 C         138.6630  139.2452  166.2554 C.3     1  UNL1        0.0888
      3 C         138.7065  139.0608  164.7674 C.3     1  UNL1        0.0274
      4 C         139.6896  139.8385  163.9437 C.3     1  UNL1        0.0311
      5 C         140.6293  140.8006  164.6080 C.ar    1  UNL1        0.0093
      6 C         141.6125  141.5783  163.7843 C.ar    1  UNL1        0.0730
      7 C         142.5522  142.5405  164.4485 C.ar    1  UNL1        0.1531
      8 F         143.5353  143.3182  163.6248 F       1  UNL1       -0.2029
      9 C         142.5087  142.7250  165.9365 C.ar    1  UNL1        0.0323
     10 C         141.5255  141.9472  166.7602 C.ar    1  UNL1        0.0181
     11 C         141.4820  142.1316  168.2482 C.ar    1  UNL1        0.0074
     12 C         140.4988  141.3539  169.0719 C.ar    1  UNL1        0.0702
     13 C         139.5591  140.3918  168.4077 C.ar    1  UNL1        0.2618
     14 O         138.5760  139.6141  169.2314 O.2     1  UNL1       -0.2669
     15 N         139.6026  140.2073  166.9196 N.ar    1  UNL1       -0.2976
     16 C         140.5858  140.9850  166.0959 C.ar    1  UNL1        0.0597
     17 N         141.6560  141.3939  162.2963 N.pl3   1  UNL1       -0.3059
     18 C         140.8858  142.1916  161.2861 C.3     1  UNL1        0.0909
     19 C         141.2311  141.6702  159.9227 C.3     1  UNL1        0.0244
     20 C         142.2148  140.5501  160.0902 C.3     1  UNL1        0.0344
     21 C         142.4774  140.3794  161.5572 C.3     1  UNL1        0.0921
     22 C         142.8281  139.7427  158.9849 C.3     1  UNL1        0.0406
     23 N         144.0871  139.2881  159.6621 N.3     1  UNL1       -0.3231
     24 C         143.0043  139.0930  157.6445 C.3     1  UNL1        0.0156
     25 C         141.7823  139.9167  157.9239 C.3     1  UNL1        0.0156
     26 H         144.1154  139.6594  160.6117 H       1  UNL1        0.1188
     27 H         144.8953  139.6271  159.1403 H       1  UNL1        0.1188
     28 C         140.4553  141.5384  170.5599 C.2     1  UNL1        0.0775
     29 O         139.8282  142.7689  171.1451 O.co2   1  UNL1       -0.5444
     30 O         141.0390  140.4923  171.4627 O.co2   1  UNL1       -0.5444
@<TRIPOS>UNITY_ATOM_ATTR
29 1
charge -1
@<TRIPOS>BOND
     1     2     1    1
     2     2     3    1
     3     3     4    1
     4     4     5    1
     5     5     6   ar
     6     6    17    1
     7    17    18    1
     8    18    19    1
     9    19    20    1
    10    20    22    1
    11    22    23    1
    12    22    24    1
    13    24    25    1
    14    20    21    1
    15     6     7   ar
    16     7     8    1
    17     7     9   ar
    18     9    10   ar
    19    10    11   ar
    20    11    12   ar
    21    12    28    1
    22    28    29   ar
    23    28    30   ar
    24    12    13   ar
    25    13    14    2
    26    13    15   ar
    27    15    16   ar
    28    15     2    1
    29    16     5   ar
    30    21    17    1
    31    16    10   ar
    32    25    22    1
    33    23    26    1
    34    23    27    1
@<TRIPOS>MOLECULE
*****
 30 34 0 0 0
SMALL
GASTEIGER

@<TRIPOS>ATOM
      1 C         143.8373  141.3193  160.3277 C.3     1  UNL1        0.0246
      2 C         142.9145  141.7574  161.4261 C.3     1  UNL1        0.0888
      3 C         142.8690  140.9941  162.7166 C.3     1  UNL1        0.0274
      4 C         141.9463  141.4322  163.8150 C.3     1  UNL1        0.0311
      5 C         141.0690  142.6337  163.6230 C.ar    1  UNL1        0.0093
      6 C         140.1462  143.0718  164.7215 C.ar    1  UNL1        0.0730
      7 C         139.2690  144.2732  164.5295 C.ar    1  UNL1        0.1531
      8 F         138.3462  144.7113  165.6279 F       1  UNL1       -0.2029
      9 C         139.3144  145.0366  163.2390 C.ar    1  UNL1        0.0323
     10 C         140.2372  144.5985  162.1406 C.ar    1  UNL1        0.0181
     11 C         140.2827  145.3618  160.8501 C.ar    1  UNL1        0.0074
     12 C         141.2054  144.9237  159.7517 C.ar    1  UNL1        0.0702
     13 C         142.0827  143.7222  159.9437 C.ar    1  UNL1        0.2618
     14 O         143.0054  143.2841  158.8452 O.2     1  UNL1       -0.2669
     15 N         142.0372  142.9588  161.2342 N.ar    1  UNL1       -0.2976
     16 C         141.1145  143.3970  162.3326 C.ar    1  UNL1        0.0597
     17 N         140.1008  142.3085  166.0119 N.pl3   1  UNL1       -0.3059
     18 C         139.5142  140.9418  166.2077 C.3     1  UNL1        0.0909
     19 C         139.6847  140.5664  167.6499 C.3     1  UNL1        0.0244
     20 C         140.3768  141.7011  168.3455 C.3     1  UNL1        0.0344
     21 C         140.6339  142.7777  167.3331 C.3     1  UNL1        0.0921
     22 C         140.7467  141.7504  169.7984 C.3     1  UNL1        0.0406
     23 N         139.5041  141.1674  170.4035 N.3     1  UNL1       -0.3231
     24 C         141.5481  142.0022  171.0410 C.3     1  UNL1        0.0156
     25 C         142.1177  142.3506  169.6978 C.3     1  UNL1        0.0156
     26 H         138.8412  140.9372  169.6632 H       1  UNL1        0.1188
     27 H         139.0835  141.8469  171.0373 H       1  UNL1        0.1188
     28 C         141.2509  145.6871  158.4612 C.2     1  UNL1        0.0775
     29 O         142.5516  146.2466  157.9662 O.co2   1  UNL1       -0.5444
     30 O         139.9956  145.8909  157.6658 O.co2   1  UNL1       -0.5444
@<TRIPOS>UNITY_ATOM_ATTR
29 1
charge -1
@<TRIPOS>BOND
     1     2     1    1
     2     2     3    1
     3     3     4    1
     4     4     5    1
     5     5     6   ar
     6     6    17    1
     7    17    18    1
     8    18    19    1
     9    19    20    1
    10    20    22    1
    11    22    23    1
    12    22    24    1
    13    24    25    1
    14    20    21    1
    15     6     7   ar
    16     7     8    1
    17     7     9   ar
    18     9    10   ar
    19    10    11   ar
    20    11    12   ar
    21    12    28    1
    22    28    29   ar
    23    28    30   ar
    24    12    13   ar
    25    13    14    2
    26    13    15   ar
    27    15    16   ar
    28    15     2    1
    29    16     5   ar
    30    21    17    1
    31    16    10   ar
    32    25    22    1
    33    23    26    1
    34    23    27    1
