@<TRIPOS>MOLECULE
*****
 28 31 0 0 0
SMALL
GASTEIGER

@<TRIPOS>ATOM
      1 C         142.2981  140.6742  163.8316 C.ar    1  UNL1        0.0831
      2 C         141.4646  141.7389  163.1819 C.ar    1  UNL1        0.0507
      3 C         140.8333  142.8118  164.0187 C.ar    1  UNL1        0.1347
      4 N         141.0353  142.8202  165.5050 N.ar    1  UNL1       -0.2122
      5 C         141.8688  141.7556  166.1546 C.ar    1  UNL1        0.1600
      6 N         142.5002  140.6826  165.3178 N.ar    1  UNL1       -0.2295
      7 C         142.0708  141.7639  167.6409 C.2     1  UNL1        0.0230
      8 C         143.3329  142.3280  168.2230 C.2     1  UNL1       -0.0005
      9 C         143.5350  142.3364  169.7093 C.2     1  UNL1        0.0010
     10 C         142.4750  141.7806  170.6135 C.2     1  UNL1        0.0153
     11 C         141.2129  141.2165  170.0314 C.2     1  UNL1        0.0669
     12 N         140.0004  140.6041  170.6675 N.2     1  UNL1       -0.2478
     13 C         139.0489  140.2173  169.5743 C.2     1  UNL1        0.0946
     14 C         139.6734  140.5906  168.2626 C.2     1  UNL1        0.0046
     15 C         141.0109  141.2081  168.5451 C.3     1  UNL1        0.0888
     16 N         139.9998  143.8764  163.3691 N.pl3   1  UNL1       -0.2880
     17 C         138.5030  143.7922  163.4197 C.3     1  UNL1        0.1242
     18 C         137.6695  144.8569  162.7701 C.3     1  UNL1        0.1636
     19 O         138.3330  146.0057  162.0700 O.3     1  UNL1       -0.3501
     20 C         139.8297  146.0899  162.0194 C.3     1  UNL1        0.1636
     21 C         140.6632  145.0253  162.6690 C.3     1  UNL1        0.1242
     22 C         142.2827  138.5531  163.8509 C.3     1  UNL1        0.0297
     23 C         142.9295  139.6013  162.9948 C.3     1  UNL1        0.1456
     24 C         143.5762  140.6495  162.1387 C.3     1  UNL1        0.0297
     25 S         143.5608  138.5283  162.1581 S.O2    1  UNL1       -0.0065
     26 C         144.1922  137.4555  161.3213 C.3     1  UNL1        0.1764
     27 O         142.4861  137.5694  162.5767 O.2     1  UNL1       -0.1727
     28 O         144.6356  139.4873  161.7394 O.2     1  UNL1       -0.1727
@<TRIPOS>BOND
     1    22    23    1
     2    23    24    1
     3    23     1    1
     4     1     2   ar
     5     2     3   ar
     6     3    16    1
     7    16    17    1
     8    17    18    1
     9    18    19    1
    10    19    20    1
    11    20    21    1
    12     3     4   ar
    13     4     5   ar
    14     5     7    1
    15     7     8    2
    16     8     9    1
    17     9    10    2
    18    10    11    1
    19    11    12    2
    20    12    13    1
    21    13    14    2
    22    14    15    1
    23     5     6   ar
    24    23    25    1
    25    25    26    1
    26    25    27    2
    27    25    28    2
    28     6     1   ar
    29    21    16    1
    30    15     7    1
    31    15    11    1
@<TRIPOS>MOLECULE
*****
 28 31 0 0 0
SMALL
GASTEIGER

@<TRIPOS>ATOM
      1 C         141.6048  140.2638  162.3118 C.ar    1  UNL1        0.0831
      2 C         141.2708  141.5566  161.6282 C.ar    1  UNL1        0.0507
      3 C         140.7051  142.6987  162.4189 C.ar    1  UNL1        0.1347
      4 N         140.4733  142.5483  163.8933 N.ar    1  UNL1       -0.2122
      5 C         140.8072  141.2555  164.5768 C.ar    1  UNL1        0.1600
      6 N         141.3730  140.1132  163.7860 N.ar    1  UNL1       -0.2295
      7 C         140.5754  141.1049  166.0512 C.2     1  UNL1        0.0230
      8 C         141.4106  141.8823  167.0249 C.2     1  UNL1       -0.0005
      9 C         141.1788  141.7318  168.4991 C.2     1  UNL1        0.0010
     10 C         140.1119  140.8038  168.9998 C.2     1  UNL1        0.0153
     11 C         139.2767  140.0264  168.0261 C.2     1  UNL1        0.0669
     12 N         138.1607  139.0435  168.2219 N.2     1  UNL1       -0.2478
     13 C         137.7028  138.5866  166.8685 C.2     1  UNL1        0.0946
     14 C         138.5357  139.2871  165.8363 C.2     1  UNL1        0.0046
     15 C         139.5085  140.1770  166.5517 C.3     1  UNL1        0.0888
     16 N         140.3712  143.9915  161.7354 N.pl3   1  UNL1       -0.2880
     17 C         139.8493  145.1492  162.5339 C.3     1  UNL1        0.1242
     18 C         139.5153  146.4420  161.8503 C.3     1  UNL1        0.1636
     19 O         139.7033  146.5770  160.3683 O.3     1  UNL1       -0.3501
     20 C         140.2252  145.4194  159.5698 C.3     1  UNL1        0.1636
     21 C         140.5591  144.1267  160.2533 C.3     1  UNL1        0.1242
     22 C         141.6616  138.1567  162.5506 C.3     1  UNL1        0.0297
     23 C         142.1705  139.1216  161.5210 C.3     1  UNL1        0.1456
     24 C         142.6794  140.0864  160.4914 C.3     1  UNL1        0.0297
     25 S         142.7362  137.9794  160.7303 S.O2    1  UNL1       -0.0065
     26 C         143.3019  136.8372  159.9394 C.3     1  UNL1        0.1764
     27 O         143.8184  137.8063  161.7543 O.2     1  UNL1       -0.1727
     28 O         141.6540  138.1524  159.7061 O.2     1  UNL1       -0.1727
@<TRIPOS>BOND
     1    22    23    1
     2    23    24    1
     3    23     1    1
     4     1     2   ar
     5     2     3   ar
     6     3    16    1
     7    16    17    1
     8    17    18    1
     9    18    19    1
    10    19    20    1
    11    20    21    1
    12     3     4   ar
    13     4     5   ar
    14     5     7    1
    15     7     8    2
    16     8     9    1
    17     9    10    2
    18    10    11    1
    19    11    12    2
    20    12    13    1
    21    13    14    2
    22    14    15    1
    23     5     6   ar
    24    23    25    1
    25    25    26    1
    26    25    27    2
    27    25    28    2
    28     6     1   ar
    29    21    16    1
    30    15     7    1
    31    15    11    1
@<TRIPOS>MOLECULE
*****
 28 31 0 0 0
SMALL
GASTEIGER

@<TRIPOS>ATOM
      1 C         140.5928  142.9043  162.7155 C.ar    1  UNL1        0.0831
      2 C         141.2222  141.8355  161.8718 C.ar    1  UNL1        0.0507
      3 C         141.6195  140.5283  162.4908 C.ar    1  UNL1        0.1347
      4 N         141.3875  140.2897  163.9535 N.ar    1  UNL1       -0.2122
      5 C         140.7581  141.3584  164.7971 C.ar    1  UNL1        0.1600
      6 N         140.3608  142.6658  164.1781 N.ar    1  UNL1       -0.2295
      7 C         140.5261  141.1199  166.2597 C.2     1  UNL1        0.0230
      8 C         141.3829  141.8123  167.2777 C.2     1  UNL1       -0.0005
      9 C         141.1510  141.5738  168.7403 C.2     1  UNL1        0.0010
     10 C         140.0620  140.6428  169.1850 C.2     1  UNL1        0.0153
     11 C         139.2052  139.9504  168.1670 C.2     1  UNL1        0.0669
     12 N         138.0651  138.9853  168.3042 N.2     1  UNL1       -0.2478
     13 C         137.5926  138.6274  166.9263 C.2     1  UNL1        0.0946
     14 C         138.4405  139.3713  165.9376 C.2     1  UNL1        0.0046
     15 C         139.4372  140.1889  166.7044 C.3     1  UNL1        0.0888
     16 N         142.2488  139.4595  161.6472 N.pl3   1  UNL1       -0.2880
     17 C         143.4585  138.7257  162.1456 C.3     1  UNL1        0.1242
     18 C         144.0878  137.6569  161.3019 C.3     1  UNL1        0.1636
     19 O         143.5075  137.3220  159.9600 O.3     1  UNL1       -0.3501
     20 C         142.2979  138.0558  159.4615 C.3     1  UNL1        0.1636
     21 C         141.6685  139.1245  160.3052 C.3     1  UNL1        0.1242
     22 C         139.8814  143.5069  160.8101 C.3     1  UNL1        0.0297
     23 C         140.1955  144.2115  162.0965 C.3     1  UNL1        0.1456
     24 C         140.5096  144.9161  163.3829 C.3     1  UNL1        0.0297
     25 S         139.7982  145.5188  161.4775 S.O2    1  UNL1       -0.0065
     26 C         139.4008  146.8261  160.8586 C.3     1  UNL1        0.1764
     27 O         141.0376  145.4957  160.6330 O.2     1  UNL1       -0.1727
     28 O         138.5587  145.5420  162.3220 O.2     1  UNL1       -0.1727
@<TRIPOS>BOND
     1    22    23    1
     2    23    24    1
     3    23     1    1
     4     1     2   ar
     5     2     3   ar
     6     3    16    1
     7    16    17    1
     8    17    18    1
     9    18    19    1
    10    19    20    1
    11    20    21    1
    12     3     4   ar
    13     4     5   ar
    14     5     7    1
    15     7     8    2
    16     8     9    1
    17     9    10    2
    18    10    11    1
    19    11    12    2
    20    12    13    1
    21    13    14    2
    22    14    15    1
    23     5     6   ar
    24    23    25    1
    25    25    26    1
    26    25    27    2
    27    25    28    2
    28     6     1   ar
    29    21    16    1
    30    15     7    1
    31    15    11    1
@<TRIPOS>MOLECULE
*****
 28 31 0 0 0
SMALL
GASTEIGER

@<TRIPOS>ATOM
      1 C         141.0849  142.3149  167.4915 C.ar    1  UNL1        0.0831
      2 C         140.3879  140.9877  167.4377 C.ar    1  UNL1        0.0507
      3 C         139.6738  140.5658  166.1880 C.ar    1  UNL1        0.1347
      4 N         139.6565  141.4711  164.9920 N.ar    1  UNL1       -0.2122
      5 C         140.3535  142.7982  165.0458 C.ar    1  UNL1        0.1600
      6 N         141.0677  143.2201  166.2957 N.ar    1  UNL1       -0.2295
      7 C         140.3363  143.7034  163.8499 C.2     1  UNL1        0.0230
      8 C         139.2107  144.6769  163.6622 C.2     1  UNL1       -0.0005
      9 C         139.1935  145.5821  162.4664 C.2     1  UNL1        0.0010
     10 C         140.3020  145.5139  161.4580 C.2     1  UNL1        0.0153
     11 C         141.4277  144.5405  161.6457 C.2     1  UNL1        0.0669
     12 N         142.6491  144.2483  160.8255 N.2     1  UNL1       -0.2478
     13 C         143.4212  143.1624  161.5146 C.2     1  UNL1        0.0946
     14 C         142.6769  142.7835  162.7606 C.2     1  UNL1        0.0046
     15 C         141.4448  143.6352  162.8416 C.3     1  UNL1        0.0888
     16 N         138.9768  139.2387  166.1341 N.pl3   1  UNL1       -0.2880
     17 C         137.9708  138.8766  167.1863 C.3     1  UNL1        0.1242
     18 C         137.2739  137.5494  167.1324 C.3     1  UNL1        0.1636
     19 O         137.5828  136.5844  166.0264 O.3     1  UNL1       -0.3501
     20 C         138.5886  136.9465  164.9742 C.3     1  UNL1        0.1636
     21 C         139.2856  138.2737  165.0281 C.3     1  UNL1        0.1242
     22 C         140.5361  143.3655  169.2508 C.3     1  UNL1        0.0297
     23 C         141.7991  142.7368  168.7413 C.3     1  UNL1        0.1456
     24 C         143.0621  142.1082  168.2318 C.3     1  UNL1        0.0297
     25 S         142.5132  143.1587  169.9911 S.O2    1  UNL1       -0.0065
     26 C         143.2273  143.5806  171.2409 C.3     1  UNL1        0.1764
     27 O         143.8175  142.7206  169.3938 O.2     1  UNL1       -0.1727
     28 O         141.2089  143.5968  170.5885 O.2     1  UNL1       -0.1727
@<TRIPOS>BOND
     1    22    23    1
     2    23    24    1
     3    23     1    1
     4     1     2   ar
     5     2     3   ar
     6     3    16    1
     7    16    17    1
     8    17    18    1
     9    18    19    1
    10    19    20    1
    11    20    21    1
    12     3     4   ar
    13     4     5   ar
    14     5     7    1
    15     7     8    2
    16     8     9    1
    17     9    10    2
    18    10    11    1
    19    11    12    2
    20    12    13    1
    21    13    14    2
    22    14    15    1
    23     5     6   ar
    24    23    25    1
    25    25    26    1
    26    25    27    2
    27    25    28    2
    28     6     1   ar
    29    21    16    1
    30    15     7    1
    31    15    11    1
@<TRIPOS>MOLECULE
*****
 28 31 0 0 0
SMALL
GASTEIGER

@<TRIPOS>ATOM
      1 C         140.6063  142.7355  163.4387 C.ar    1  UNL1        0.0831
      2 C         141.2185  141.6867  162.5580 C.ar    1  UNL1        0.0507
      3 C         141.6159  140.3608  163.1359 C.ar    1  UNL1        0.1347
      4 N         141.4013  140.0836  164.5944 N.ar    1  UNL1       -0.2122
      5 C         140.7891  141.1323  165.4750 C.ar    1  UNL1        0.1600
      6 N         140.3916  142.4583  164.8971 N.ar    1  UNL1       -0.2295
      7 C         140.5744  140.8551  166.9334 C.2     1  UNL1        0.0230
      8 C         139.3614  140.0953  167.3818 C.2     1  UNL1       -0.0005
      9 C         139.1467  139.8181  168.8402 C.2     1  UNL1        0.0010
     10 C         140.1451  140.3008  169.8503 C.2     1  UNL1        0.0153
     11 C         141.3582  141.0606  169.4019 C.2     1  UNL1        0.0669
     12 N         142.5061  141.6571  170.1611 N.2     1  UNL1       -0.2478
     13 C         143.4303  142.3030  169.1718 C.2     1  UNL1        0.0946
     14 C         142.8535  142.1056  167.8012 C.2     1  UNL1        0.0046
     15 C         141.5729  141.3377  167.9435 C.3     1  UNL1        0.0888
     16 N         142.2281  139.3121  162.2553 N.pl3   1  UNL1       -0.2880
     17 C         143.6247  138.8327  162.5196 C.3     1  UNL1        0.1242
     18 C         144.2369  137.7839  161.6389 C.3     1  UNL1        0.1636
     19 O         143.4524  137.2147  160.4942 O.3     1  UNL1       -0.3501
     20 C         142.0559  137.6940  160.2300 C.3     1  UNL1        0.1636
     21 C         141.4437  138.7427  161.1105 C.3     1  UNL1        0.1242
     22 C         141.0076  144.7622  163.9194 C.3     1  UNL1        0.0297
     23 C         140.2088  144.0614  162.8608 C.3     1  UNL1        0.1456
     24 C         139.4100  143.3605  161.8022 C.3     1  UNL1        0.0297
     25 S         139.8113  145.3873  162.2829 S.O2    1  UNL1       -0.0065
     26 C         139.4137  146.7131  161.7050 C.3     1  UNL1        0.1764
     27 O         141.2460  145.8247  162.2995 O.2     1  UNL1       -0.1727
     28 O         138.3766  144.9499  162.2663 O.2     1  UNL1       -0.1727
@<TRIPOS>BOND
     1    22    23    1
     2    23    24    1
     3    23     1    1
     4     1     2   ar
     5     2     3   ar
     6     3    16    1
     7    16    17    1
     8    17    18    1
     9    18    19    1
    10    19    20    1
    11    20    21    1
    12     3     4   ar
    13     4     5   ar
    14     5     7    1
    15     7     8    2
    16     8     9    1
    17     9    10    2
    18    10    11    1
    19    11    12    2
    20    12    13    1
    21    13    14    2
    22    14    15    1
    23     5     6   ar
    24    23    25    1
    25    25    26    1
    26    25    27    2
    27    25    28    2
    28     6     1   ar
    29    21    16    1
    30    15     7    1
    31    15    11    1
@<TRIPOS>MOLECULE
*****
 28 31 0 0 0
SMALL
GASTEIGER

@<TRIPOS>ATOM
      1 C         139.3226  139.7620  163.7195 C.ar    1  UNL1        0.0831
      2 C         138.9804  139.4966  162.2833 C.ar    1  UNL1        0.0507
      3 C         139.5886  140.3370  161.1998 C.ar    1  UNL1        0.1347
      4 N         140.5390  141.4426  161.5524 N.ar    1  UNL1       -0.2122
      5 C         140.8811  141.7079  162.9886 C.ar    1  UNL1        0.1600
      6 N         140.2729  140.8676  164.0721 N.ar    1  UNL1       -0.2295
      7 C         141.8315  142.8136  163.3413 C.2     1  UNL1        0.0230
      8 C         141.3484  144.2330  163.3829 C.2     1  UNL1       -0.0005
      9 C         142.2987  145.3386  163.7356 C.2     1  UNL1        0.0010
     10 C         143.7322  145.0248  164.0467 C.2     1  UNL1        0.0153
     11 C         144.2153  143.6054  164.0051 C.2     1  UNL1        0.0669
     12 N         145.5613  142.9953  164.2621 N.2     1  UNL1       -0.2478
     13 C         145.4428  141.5127  164.0682 C.2     1  UNL1        0.0946
     14 C         144.0236  141.2063  163.6914 C.2     1  UNL1        0.0046
     15 C         143.2649  142.4997  163.6524 C.3     1  UNL1        0.0888
     16 N         139.2464  140.0717  159.7637 N.pl3   1  UNL1       -0.2880
     17 C         139.9472  138.9764  159.0157 C.3     1  UNL1        0.1242
     18 C         139.6050  138.7111  157.5795 C.3     1  UNL1        0.1636
     19 O         138.5621  139.5411  156.8914 O.3     1  UNL1       -0.3501
     20 C         137.8614  140.6363  157.6393 C.3     1  UNL1        0.1636
     21 C         138.2035  140.9016  159.0755 C.3     1  UNL1        0.1242
     22 C         138.3498  140.1634  165.5613 C.3     1  UNL1        0.0297
     23 C         138.7144  138.9217  164.8029 C.3     1  UNL1        0.1456
     24 C         139.0790  137.6799  164.0445 C.3     1  UNL1        0.0297
     25 S         138.1061  138.0813  165.8864 S.O2    1  UNL1       -0.0065
     26 C         137.4979  137.2411  166.9699 C.3     1  UNL1        0.1764
     27 O         138.7224  136.8549  165.2813 O.2     1  UNL1       -0.1727
     28 O         137.4898  139.3076  166.4916 O.2     1  UNL1       -0.1727
@<TRIPOS>BOND
     1    22    23    1
     2    23    24    1
     3    23     1    1
     4     1     2   ar
     5     2     3   ar
     6     3    16    1
     7    16    17    1
     8    17    18    1
     9    18    19    1
    10    19    20    1
    11    20    21    1
    12     3     4   ar
    13     4     5   ar
    14     5     7    1
    15     7     8    2
    16     8     9    1
    17     9    10    2
    18    10    11    1
    19    11    12    2
    20    12    13    1
    21    13    14    2
    22    14    15    1
    23     5     6   ar
    24    23    25    1
    25    25    26    1
    26    25    27    2
    27    25    28    2
    28     6     1   ar
    29    21    16    1
    30    15     7    1
    31    15    11    1
@<TRIPOS>MOLECULE
*****
 28 31 0 0 0
SMALL
GASTEIGER

@<TRIPOS>ATOM
      1 C         139.9510  144.9733  157.0938 C.ar    1  UNL1        0.0831
      2 C         138.9587  144.0594  156.4378 C.ar    1  UNL1        0.0507
      3 C         138.0124  144.5970  155.4056 C.ar    1  UNL1        0.1347
      4 N         138.0583  146.0483  155.0293 N.ar    1  UNL1       -0.2122
      5 C         139.0506  146.9621  155.6852 C.ar    1  UNL1        0.1600
      6 N         139.9970  146.4245  156.7175 N.ar    1  UNL1       -0.2295
      7 C         139.0967  148.4134  155.3090 C.2     1  UNL1        0.0230
      8 C         138.3804  149.4290  156.1489 C.2     1  UNL1       -0.0005
      9 C         138.4264  150.8803  155.7727 C.2     1  UNL1        0.0010
     10 C         139.1887  151.3161  154.5565 C.2     1  UNL1        0.0153
     11 C         139.9049  150.3004  153.7166 C.2     1  UNL1        0.0669
     12 N         140.7310  150.4306  152.4713 N.2     1  UNL1       -0.2478
     13 C         141.1955  149.0596  152.0779 C.2     1  UNL1        0.0946
     14 C         140.6565  148.0822  153.0801 C.2     1  UNL1        0.0046
     15 C         139.8589  148.8491  154.0928 C.3     1  UNL1        0.0888
     16 N         137.0200  143.6832  154.7496 N.pl3   1  UNL1       -0.2880
     17 C         136.3626  142.5947  155.5454 C.3     1  UNL1        0.1242
     18 C         135.3702  141.6810  154.8893 C.3     1  UNL1        0.1636
     19 O         135.0353  141.8557  153.4377 O.3     1  UNL1       -0.3501
     20 C         135.6927  142.9442  152.6420 C.3     1  UNL1        0.1636
     21 C         136.6850  143.8579  153.2980 C.3     1  UNL1        0.1242
     22 C         141.9303  145.4365  157.7002 C.3     1  UNL1        0.0297
     23 C         140.8974  144.4357  158.1260 C.3     1  UNL1        0.1456
     24 C         139.8644  143.4349  158.5518 C.3     1  UNL1        0.0297
     25 S         141.8437  143.8981  159.1582 S.O2    1  UNL1       -0.0065
     26 C         142.7900  143.3607  160.1904 C.3     1  UNL1        0.1764
     27 O         141.8504  142.5702  158.4606 O.2     1  UNL1       -0.1727
     28 O         141.8371  145.2260  159.8558 O.2     1  UNL1       -0.1727
@<TRIPOS>BOND
     1    22    23    1
     2    23    24    1
     3    23     1    1
     4     1     2   ar
     5     2     3   ar
     6     3    16    1
     7    16    17    1
     8    17    18    1
     9    18    19    1
    10    19    20    1
    11    20    21    1
    12     3     4   ar
    13     4     5   ar
    14     5     7    1
    15     7     8    2
    16     8     9    1
    17     9    10    2
    18    10    11    1
    19    11    12    2
    20    12    13    1
    21    13    14    2
    22    14    15    1
    23     5     6   ar
    24    23    25    1
    25    25    26    1
    26    25    27    2
    27    25    28    2
    28     6     1   ar
    29    21    16    1
    30    15     7    1
    31    15    11    1
@<TRIPOS>MOLECULE
*****
 28 31 0 0 0
SMALL
GASTEIGER

@<TRIPOS>ATOM
      1 C         143.0003  139.0166  157.8987 C.ar    1  UNL1        0.0831
      2 C         142.4926  140.3455  157.4227 C.ar    1  UNL1        0.0507
      3 C         142.3262  141.4764  158.3940 C.ar    1  UNL1        0.1347
      4 N         142.6675  141.2785  159.8412 N.ar    1  UNL1       -0.2122
      5 C         143.1752  139.9497  160.3171 C.ar    1  UNL1        0.1600
      6 N         143.3416  138.8188  159.3458 N.ar    1  UNL1       -0.2295
      7 C         143.5164  139.7518  161.7643 C.2     1  UNL1        0.0230
      8 C         144.6819  140.4793  162.3663 C.2     1  UNL1       -0.0005
      9 C         145.0232  140.2814  163.8134 C.2     1  UNL1        0.0010
     10 C         144.1990  139.3559  164.6587 C.2     1  UNL1        0.0153
     11 C         143.0336  138.6285  164.0567 C.2     1  UNL1        0.0669
     12 N         142.0466  137.6597  164.6375 N.2     1  UNL1       -0.2478
     13 C         141.0953  137.2589  163.5492 C.2     1  UNL1        0.0946
     14 C         141.4943  137.9799  162.2958 C.2     1  UNL1        0.0046
     15 C         142.6923  138.8264  162.6095 C.3     1  UNL1        0.0888
     16 N         141.8185  142.8052  157.9180 N.pl3   1  UNL1       -0.2880
     17 C         142.6624  144.0341  158.0852 C.3     1  UNL1        0.1242
     18 C         142.1546  145.3630  157.6093 C.3     1  UNL1        0.1636
     19 O         140.8032  145.4628  156.9662 O.3     1  UNL1       -0.3501
     20 C         139.9594  144.2340  156.7990 C.3     1  UNL1        0.1636
     21 C         140.4671  142.9052  157.2749 C.3     1  UNL1        0.1242
     22 C         143.6292  138.8540  155.8793 C.3     1  UNL1        0.0297
     23 C         143.1667  137.8857  156.9274 C.3     1  UNL1        0.1456
     24 C         142.7042  136.9175  157.9755 C.3     1  UNL1        0.0297
     25 S         143.3331  136.7549  155.9561 S.O2    1  UNL1       -0.0065
     26 C         143.4994  135.6240  154.9849 C.3     1  UNL1        0.1764
     27 O         144.7412  137.1948  155.6850 O.2     1  UNL1       -0.1727
     28 O         141.9249  136.3149  156.2272 O.2     1  UNL1       -0.1727
@<TRIPOS>BOND
     1    22    23    1
     2    23    24    1
     3    23     1    1
     4     1     2   ar
     5     2     3   ar
     6     3    16    1
     7    16    17    1
     8    17    18    1
     9    18    19    1
    10    19    20    1
    11    20    21    1
    12     3     4   ar
    13     4     5   ar
    14     5     7    1
    15     7     8    2
    16     8     9    1
    17     9    10    2
    18    10    11    1
    19    11    12    2
    20    12    13    1
    21    13    14    2
    22    14    15    1
    23     5     6   ar
    24    23    25    1
    25    25    26    1
    26    25    27    2
    27    25    28    2
    28     6     1   ar
    29    21    16    1
    30    15     7    1
    31    15    11    1
@<TRIPOS>MOLECULE
*****
 28 31 0 0 0
SMALL
GASTEIGER

@<TRIPOS>ATOM
      1 C         141.7288  140.2297  163.4758 C.ar    1  UNL1        0.0831
      2 C         141.1904  141.4673  162.8211 C.ar    1  UNL1        0.0507
      3 C         140.4616  142.4919  163.6390 C.ar    1  UNL1        0.1347
      4 N         140.2711  142.2790  165.1116 N.ar    1  UNL1       -0.2122
      5 C         140.8095  141.0414  165.7662 C.ar    1  UNL1        0.1600
      6 N         141.5384  140.0168  164.9483 N.ar    1  UNL1       -0.2295
      7 C         140.6190  140.8285  167.2388 C.2     1  UNL1        0.0230
      8 C         139.4026  140.1090  167.7414 C.2     1  UNL1       -0.0005
      9 C         139.2121  139.8960  169.2138 C.2     1  UNL1        0.0010
     10 C         140.2381  140.4026  170.1838 C.2     1  UNL1        0.0153
     11 C         141.4545  141.1221  169.6812 C.2     1  UNL1        0.0669
     12 N         142.6270  141.7294  170.3929 N.2     1  UNL1       -0.2478
     13 C         143.5420  142.3178  169.3602 C.2     1  UNL1        0.0946
     14 C         142.9351  142.0740  168.0103 C.2     1  UNL1        0.0046
     15 C         141.6450  141.3350  168.2087 C.3     1  UNL1        0.0888
     16 N         139.9232  143.7294  162.9843 N.pl3   1  UNL1       -0.2880
     17 C         140.8428  144.6326  162.2168 C.3     1  UNL1        0.1242
     18 C         140.3043  145.8702  161.5622 C.3     1  UNL1        0.1636
     19 O         138.8465  146.2046  161.6750 O.3     1  UNL1       -0.3501
     20 C         137.9269  145.3015  162.4424 C.3     1  UNL1        0.1636
     21 C         138.4653  144.0639  163.0971 C.3     1  UNL1        0.1242
     22 C         143.5367  139.1424  163.6980 C.3     1  UNL1        0.0297
     23 C         142.4576  139.2051  162.6579 C.3     1  UNL1        0.1456
     24 C         141.3786  139.2678  161.6179 C.3     1  UNL1        0.0297
     25 S         143.1865  138.1805  161.8400 S.O2    1  UNL1       -0.0065
     26 C         143.9152  137.1558  161.0221 C.3     1  UNL1        0.1764
     27 O         144.4525  138.9736  161.9744 O.2     1  UNL1       -0.1727
     28 O         141.9205  137.3873  161.7056 O.2     1  UNL1       -0.1727
@<TRIPOS>BOND
     1    22    23    1
     2    23    24    1
     3    23     1    1
     4     1     2   ar
     5     2     3   ar
     6     3    16    1
     7    16    17    1
     8    17    18    1
     9    18    19    1
    10    19    20    1
    11    20    21    1
    12     3     4   ar
    13     4     5   ar
    14     5     7    1
    15     7     8    2
    16     8     9    1
    17     9    10    2
    18    10    11    1
    19    11    12    2
    20    12    13    1
    21    13    14    2
    22    14    15    1
    23     5     6   ar
    24    23    25    1
    25    25    26    1
    26    25    27    2
    27    25    28    2
    28     6     1   ar
    29    21    16    1
    30    15     7    1
    31    15    11    1
