@<TRIPOS>MOLECULE
*****
 27 30 0 0 0
SMALL
GASTEIGER

@<TRIPOS>ATOM
      1 C         139.8676  138.1774  162.8560 C.ar    1  UNL1        0.1384
      2 C         138.8537  137.6376  163.8207 C.ar    1  UNL1        0.0381
      3 C         138.8336  138.1256  165.2389 C.ar    1  UNL1        0.0172
      4 C         139.8275  139.1536  165.6925 C.ar    1  UNL1        0.0430
      5 C         140.8413  139.6934  164.7279 C.ar    1  UNL1        0.0207
      6 C         140.8614  139.2053  163.3096 C.ar    1  UNL1        0.0362
      7 C         141.8352  140.7213  165.1814 C.3     1  UNL1        0.1402
      8 O         142.8491  141.2612  164.2168 O.3     1  UNL1       -0.3518
      9 C         143.8428  142.2891  164.6704 C.3     1  UNL1        0.1425
     10 C         143.8227  142.7771  166.0886 C.3     1  UNL1        0.0322
     11 C         142.8089  142.2373  167.0533 C.3     1  UNL1        0.0070
     12 C         141.8151  141.2094  166.5997 C.3     1  UNL1        0.0494
     13 C         140.8011  140.6695  167.5643 C.3     1  UNL1        0.0717
     14 N         139.8074  139.6416  167.1107 N.pl3   1  UNL1       -0.3341
     15 H         139.1419  139.2873  167.7439 H       1  UNL1        0.1468
     16 C         140.7810  141.1576  168.9826 C.3     1  UNL1        0.0230
     17 C         141.5461  140.4192  170.0407 C.3     1  UNL1        0.0338
     18 C         141.5260  140.9073  171.4590 C.3     1  UNL1        0.1422
     19 O         140.7408  142.1337  171.8190 O.3     1  UNL1       -0.3538
     20 C         139.9758  142.8719  170.7609 C.3     1  UNL1        0.1422
     21 C         139.9959  142.3838  169.3427 C.3     1  UNL1        0.0338
     22 O         139.8877  137.6894  161.4378 O.3     1  UNL1       -0.4755
     23 C         139.2240  138.4927  160.3587 C.3     1  UNL1        0.2054
     24 C         137.9642  139.2509  160.6554 C.3     1  UNL1        0.0473
     25 C         137.5772  141.0294  162.5093 C.3     1  UNL1        0.0001
     26 C         138.0381  140.6728  161.1271 C.3     1  UNL1        0.0037
     27 C         138.5729  141.7381  160.2167 C.3     1  UNL1        0.0001
@<TRIPOS>BOND
     1    25    26    1
     2    26    27    1
     3    26    24    1
     4    24    23    1
     5    23    22    1
     6    22     1    1
     7     1     2   ar
     8     2     3   ar
     9     3     4   ar
    10     4     5   ar
    11     5     6   ar
    12     5     7    1
    13     7     8    1
    14     8     9    1
    15     9    10    1
    16    10    11    1
    17    12    11    1
    18    12    13    1
    19    13    16    1
    20    16    17    1
    21    17    18    1
    22    18    19    1
    23    19    20    1
    24    20    21    1
    25    13    14    1
    26     6     1   ar
    27    12     7    1
    28    21    16    1
    29    14     4    1
    30    14    15    1
@<TRIPOS>MOLECULE
*****
 27 30 0 0 0
SMALL
GASTEIGER

@<TRIPOS>ATOM
      1 C         142.5728  138.9105  169.7945 C.ar    1  UNL1        0.1384
      2 C         141.2763  139.4885  170.2796 C.ar    1  UNL1        0.0381
      3 C         140.3440  140.1554  169.3121 C.ar    1  UNL1        0.0172
      4 C         140.7081  140.2443  167.8596 C.ar    1  UNL1        0.0430
      5 C         142.0045  139.6662  167.3747 C.ar    1  UNL1        0.0207
      6 C         142.9368  138.9993  168.3421 C.ar    1  UNL1        0.0362
      7 C         142.3686  139.7551  165.9222 C.3     1  UNL1        0.1402
      8 O         143.6649  139.1770  165.4373 O.3     1  UNL1       -0.3518
      9 C         144.0290  139.2659  163.9848 C.3     1  UNL1        0.1425
     10 C         143.0966  139.9328  163.0174 C.3     1  UNL1        0.0322
     11 C         141.8002  140.5108  163.5023 C.3     1  UNL1        0.0070
     12 C         141.4362  140.4220  164.9547 C.3     1  UNL1        0.0494
     13 C         140.1398  141.0000  165.4398 C.3     1  UNL1        0.0717
     14 N         139.7757  140.9112  166.8922 N.pl3   1  UNL1       -0.3341
     15 H         138.9249  141.2905  167.2105 H       1  UNL1        0.1468
     16 C         139.2074  141.6669  164.4723 C.3     1  UNL1        0.0230
     17 C         138.2299  140.8453  163.6852 C.3     1  UNL1        0.0338
     18 C         137.2975  141.5122  162.7177 C.3     1  UNL1        0.1422
     19 O         137.3427  143.0007  162.5374 O.3     1  UNL1       -0.3538
     20 C         138.3202  143.8222  163.3245 C.3     1  UNL1        0.1422
     21 C         139.2526  143.1553  164.2919 C.3     1  UNL1        0.0338
     22 O         143.5051  138.2436  170.7620 O.3     1  UNL1       -0.4755
     23 C         144.0261  136.8668  170.4737 C.3     1  UNL1        0.2054
     24 C         144.2807  135.9101  171.6006 C.3     1  UNL1        0.0473
     25 C         145.9795  134.5280  172.9984 C.3     1  UNL1        0.0001
     26 C         145.6801  135.6845  172.0913 C.3     1  UNL1        0.0037
     27 C         146.7800  136.6155  171.6749 C.3     1  UNL1        0.0001
@<TRIPOS>BOND
     1    25    26    1
     2    26    27    1
     3    26    24    1
     4    24    23    1
     5    23    22    1
     6    22     1    1
     7     1     2   ar
     8     2     3   ar
     9     3     4   ar
    10     4     5   ar
    11     5     6   ar
    12     5     7    1
    13     7     8    1
    14     8     9    1
    15     9    10    1
    16    10    11    1
    17    12    11    1
    18    12    13    1
    19    13    16    1
    20    16    17    1
    21    17    18    1
    22    18    19    1
    23    19    20    1
    24    20    21    1
    25    13    14    1
    26     6     1   ar
    27    12     7    1
    28    21    16    1
    29    14     4    1
    30    14    15    1
@<TRIPOS>MOLECULE
*****
 27 30 0 0 0
SMALL
GASTEIGER

@<TRIPOS>ATOM
      1 C         143.7020  138.7477  162.8141 C.ar    1  UNL1        0.1384
      2 C         144.7231  139.6826  163.3914 C.ar    1  UNL1        0.0381
      3 C         144.4267  140.4265  164.6598 C.ar    1  UNL1        0.0172
      4 C         143.1091  140.2353  165.3509 C.ar    1  UNL1        0.0430
      5 C         142.0881  139.3004  164.7736 C.ar    1  UNL1        0.0207
      6 C         142.3845  138.5566  163.5052 C.ar    1  UNL1        0.0362
      7 C         140.7705  139.1093  165.4647 C.3     1  UNL1        0.1402
      8 O         139.7494  138.1744  164.8874 O.3     1  UNL1       -0.3518
      9 C         138.4319  137.9834  165.5785 C.3     1  UNL1        0.1425
     10 C         138.1355  138.7272  166.8469 C.3     1  UNL1        0.0322
     11 C         139.1566  139.6621  167.4242 C.3     1  UNL1        0.0070
     12 C         140.4741  139.8532  166.7331 C.3     1  UNL1        0.0494
     13 C         141.4952  140.7881  167.3104 C.3     1  UNL1        0.0717
     14 N         142.8127  140.9792  166.6193 N.pl3   1  UNL1       -0.3341
     15 H         143.4829  141.5928  166.9982 H       1  UNL1        0.1468
     16 C         141.1988  141.5319  168.5788 C.3     1  UNL1        0.0230
     17 C         141.4686  140.8879  169.9065 C.3     1  UNL1        0.0338
     18 C         141.1722  141.6317  171.1749 C.3     1  UNL1        0.1422
     19 O         140.6060  143.0196  171.1156 O.3     1  UNL1       -0.3538
     20 C         140.3363  143.6635  169.7881 C.3     1  UNL1        0.1422
     21 C         140.6327  142.9197  168.5196 C.3     1  UNL1        0.0338
     22 O         143.9984  138.0039  161.5457 O.3     1  UNL1       -0.4755
     23 C         142.8801  137.6197  160.6227 C.3     1  UNL1        0.2054
     24 C         142.1987  138.6675  159.7933 C.3     1  UNL1        0.0473
     25 C         139.7742  138.4571  160.7030 C.3     1  UNL1        0.0001
     26 C         140.9357  139.3096  160.2857 C.3     1  UNL1        0.0037
     27 C         140.8342  140.8043  160.3609 C.3     1  UNL1        0.0001
@<TRIPOS>BOND
     1    25    26    1
     2    26    27    1
     3    26    24    1
     4    24    23    1
     5    23    22    1
     6    22     1    1
     7     1     2   ar
     8     2     3   ar
     9     3     4   ar
    10     4     5   ar
    11     5     6   ar
    12     5     7    1
    13     7     8    1
    14     8     9    1
    15     9    10    1
    16    10    11    1
    17    12    11    1
    18    12    13    1
    19    13    16    1
    20    16    17    1
    21    17    18    1
    22    18    19    1
    23    19    20    1
    24    20    21    1
    25    13    14    1
    26     6     1   ar
    27    12     7    1
    28    21    16    1
    29    14     4    1
    30    14    15    1
@<TRIPOS>MOLECULE
*****
 27 30 0 0 0
SMALL
GASTEIGER

@<TRIPOS>ATOM
      1 C         140.0373  138.1828  162.8090 C.ar    1  UNL1        0.1384
      2 C         139.0101  137.6342  163.7545 C.ar    1  UNL1        0.0381
      3 C         138.9562  138.1254  165.1708 C.ar    1  UNL1        0.0172
      4 C         139.9295  139.1653  165.6415 C.ar    1  UNL1        0.0430
      5 C         140.9566  139.7138  164.6959 C.ar    1  UNL1        0.0207
      6 C         141.0105  139.2226  163.2797 C.ar    1  UNL1        0.0362
      7 C         141.9299  140.7537  165.1666 C.3     1  UNL1        0.1402
      8 O         142.9570  141.3022  164.2211 O.3     1  UNL1       -0.3518
      9 C         143.9303  142.3420  164.6918 C.3     1  UNL1        0.1425
     10 C         143.8764  142.8332  166.1081 C.3     1  UNL1        0.0322
     11 C         142.8493  142.2847  167.0536 C.3     1  UNL1        0.0070
     12 C         141.8761  141.2449  166.5829 C.3     1  UNL1        0.0494
     13 C         140.8489  140.6963  167.5285 C.3     1  UNL1        0.0717
     14 N         139.8757  139.6565  167.0577 N.pl3   1  UNL1       -0.3341
     15 H         139.2015  139.2964  167.6783 H       1  UNL1        0.1468
     16 C         140.7950  141.1875  168.9447 C.3     1  UNL1        0.0230
     17 C         141.5258  140.4454  170.0243 C.3     1  UNL1        0.0338
     18 C         141.4720  140.9367  171.4405 C.3     1  UNL1        0.1422
     19 O         140.6873  142.1700  171.7772 O.3     1  UNL1       -0.3538
     20 C         139.9565  142.9120  170.6977 C.3     1  UNL1        0.1422
     21 C         140.0104  142.4207  169.2815 C.3     1  UNL1        0.0338
     22 O         140.0912  137.6916  161.3927 O.3     1  UNL1       -0.4755
     23 C         140.6007  138.5911  160.3057 C.3     1  UNL1        0.2054
     24 C         141.9585  138.3565  159.7131 C.3     1  UNL1        0.0473
     25 C         143.9025  137.7932  161.3421 C.3     1  UNL1        0.0001
     26 C         143.1873  138.7766  160.4639 C.3     1  UNL1        0.0037
     27 C         143.7007  140.1802  160.3364 C.3     1  UNL1        0.0001
@<TRIPOS>BOND
     1    25    26    1
     2    26    27    1
     3    26    24    1
     4    24    23    1
     5    23    22    1
     6    22     1    1
     7     1     2   ar
     8     2     3   ar
     9     3     4   ar
    10     4     5   ar
    11     5     6   ar
    12     5     7    1
    13     7     8    1
    14     8     9    1
    15     9    10    1
    16    10    11    1
    17    12    11    1
    18    12    13    1
    19    13    16    1
    20    16    17    1
    21    17    18    1
    22    18    19    1
    23    19    20    1
    24    20    21    1
    25    13    14    1
    26     6     1   ar
    27    12     7    1
    28    21    16    1
    29    14     4    1
    30    14    15    1
@<TRIPOS>MOLECULE
*****
 27 30 0 0 0
SMALL
GASTEIGER

@<TRIPOS>ATOM
      1 C         138.7853  143.2569  162.2898 C.ar    1  UNL1        0.1384
      2 C         138.3556  144.4026  163.1575 C.ar    1  UNL1        0.0381
      3 C         138.7282  144.4240  164.6103 C.ar    1  UNL1        0.0172
      4 C         139.5306  143.2997  165.1954 C.ar    1  UNL1        0.0430
      5 C         139.9602  142.1541  164.3277 C.ar    1  UNL1        0.0207
      6 C         139.5876  142.1327  162.8749 C.ar    1  UNL1        0.0362
      7 C         140.7626  141.0298  164.9128 C.3     1  UNL1        0.1402
      8 O         141.1923  139.8842  164.0452 O.3     1  UNL1       -0.3518
      9 C         141.9946  138.7600  164.6303 C.3     1  UNL1        0.1425
     10 C         142.3672  138.7814  166.0831 C.3     1  UNL1        0.0322
     11 C         141.9375  139.9270  166.9508 C.3     1  UNL1        0.0070
     12 C         141.1352  141.0512  166.3657 C.3     1  UNL1        0.0494
     13 C         140.7055  142.1969  167.2334 C.3     1  UNL1        0.0717
     14 N         139.9032  143.3211  166.6482 N.pl3   1  UNL1       -0.3341
     15 H         139.6212  144.0730  167.2177 H       1  UNL1        0.1468
     16 C         141.0781  142.2183  168.6862 C.3     1  UNL1        0.0230
     17 C         140.1109  141.7143  169.7160 C.3     1  UNL1        0.0338
     18 C         140.4836  141.7358  171.1689 C.3     1  UNL1        0.1422
     19 O         141.8234  142.2612  171.5918 O.3     1  UNL1       -0.3538
     20 C         142.7905  142.7651  170.5620 C.3     1  UNL1        0.1422
     21 C         142.4179  142.7437  169.1092 C.3     1  UNL1        0.0338
     22 O         138.4127  143.2355  160.8369 O.3     1  UNL1       -0.4755
     23 C         139.4670  143.4375  159.7892 C.3     1  UNL1        0.2054
     24 C         140.5353  144.4711  159.9898 C.3     1  UNL1        0.0473
     25 C         142.2671  144.4744  161.9265 C.3     1  UNL1        0.0001
     26 C         141.8733  144.0703  160.5367 C.3     1  UNL1        0.0037
     27 C         142.8176  143.2655  159.6937 C.3     1  UNL1        0.0001
@<TRIPOS>BOND
     1    25    26    1
     2    26    27    1
     3    26    24    1
     4    24    23    1
     5    23    22    1
     6    22     1    1
     7     1     2   ar
     8     2     3   ar
     9     3     4   ar
    10     4     5   ar
    11     5     6   ar
    12     5     7    1
    13     7     8    1
    14     8     9    1
    15     9    10    1
    16    10    11    1
    17    12    11    1
    18    12    13    1
    19    13    16    1
    20    16    17    1
    21    17    18    1
    22    18    19    1
    23    19    20    1
    24    20    21    1
    25    13    14    1
    26     6     1   ar
    27    12     7    1
    28    21    16    1
    29    14     4    1
    30    14    15    1
@<TRIPOS>MOLECULE
*****
 27 30 0 0 0
SMALL
GASTEIGER

@<TRIPOS>ATOM
      1 C         144.4985  142.2938  162.2933 C.ar    1  UNL1        0.1384
      2 C         145.1665  141.4237  163.3165 C.ar    1  UNL1        0.0381
      3 C         144.5234  141.2109  164.6549 C.ar    1  UNL1        0.0172
      4 C         143.2124  141.8681  164.9700 C.ar    1  UNL1        0.0430
      5 C         142.5444  142.7381  163.9469 C.ar    1  UNL1        0.0207
      6 C         143.1875  142.9509  162.6085 C.ar    1  UNL1        0.0362
      7 C         141.2334  143.3954  164.2620 C.3     1  UNL1        0.1402
      8 O         140.5655  144.2654  163.2389 O.3     1  UNL1       -0.3518
      9 C         139.2545  144.9226  163.5540 C.3     1  UNL1        0.1425
     10 C         138.6114  144.7098  164.8924 C.3     1  UNL1        0.0322
     11 C         139.2794  143.8398  165.9156 C.3     1  UNL1        0.0070
     12 C         140.5903  143.1826  165.6004 C.3     1  UNL1        0.0494
     13 C         141.2583  142.3125  166.6236 C.3     1  UNL1        0.0717
     14 N         142.5693  141.6553  166.3084 N.pl3   1  UNL1       -0.3341
     15 H         143.0077  141.0843  166.9799 H       1  UNL1        0.1468
     16 C         140.6153  142.0997  167.9619 C.3     1  UNL1        0.0230
     17 C         139.9228  140.8037  168.2637 C.3     1  UNL1        0.0338
     18 C         139.2797  140.5909  169.6021 C.3     1  UNL1        0.1422
     19 O         139.3292  141.6741  170.6386 O.3     1  UNL1       -0.3538
     20 C         140.0216  142.9700  170.3368 C.3     1  UNL1        0.1422
     21 C         140.6647  143.1828  168.9985 C.3     1  UNL1        0.0338
     22 O         145.1415  142.5066  160.9550 O.3     1  UNL1       -0.4755
     23 C         144.2958  142.5656  159.7174 C.3     1  UNL1        0.2054
     24 C         143.9419  141.3024  158.9900 C.3     1  UNL1        0.0473
     25 C         141.6111  140.7034  159.9688 C.3     1  UNL1        0.0001
     26 C         143.0157  140.3067  159.6230 C.3     1  UNL1        0.0037
     27 C         143.4942  138.9144  159.9101 C.3     1  UNL1        0.0001
@<TRIPOS>BOND
     1    25    26    1
     2    26    27    1
     3    26    24    1
     4    24    23    1
     5    23    22    1
     6    22     1    1
     7     1     2   ar
     8     2     3   ar
     9     3     4   ar
    10     4     5   ar
    11     5     6   ar
    12     5     7    1
    13     7     8    1
    14     8     9    1
    15     9    10    1
    16    10    11    1
    17    12    11    1
    18    12    13    1
    19    13    16    1
    20    16    17    1
    21    17    18    1
    22    18    19    1
    23    19    20    1
    24    20    21    1
    25    13    14    1
    26     6     1   ar
    27    12     7    1
    28    21    16    1
    29    14     4    1
    30    14    15    1
@<TRIPOS>MOLECULE
*****
 27 30 0 0 0
SMALL
GASTEIGER

@<TRIPOS>ATOM
      1 C         143.9498  141.0116  162.6447 C.ar    1  UNL1        0.1384
      2 C         144.8276  141.8868  163.4895 C.ar    1  UNL1        0.0381
      3 C         144.4440  142.1876  164.9081 C.ar    1  UNL1        0.0172
      4 C         143.1826  141.6132  165.4818 C.ar    1  UNL1        0.0430
      5 C         142.3049  140.7381  164.6370 C.ar    1  UNL1        0.0207
      6 C         142.6885  140.4373  163.2184 C.ar    1  UNL1        0.0362
      7 C         141.0435  140.1638  165.2107 C.3     1  UNL1        0.1402
      8 O         140.1658  139.2887  164.3659 O.3     1  UNL1       -0.3518
      9 C         138.9045  138.7144  164.9396 C.3     1  UNL1        0.1425
     10 C         138.5209  139.0152  166.3582 C.3     1  UNL1        0.0322
     11 C         139.3986  139.8903  167.2030 C.3     1  UNL1        0.0070
     12 C         140.6599  140.4646  166.6293 C.3     1  UNL1        0.0494
     13 C         141.5377  141.3397  167.4742 C.3     1  UNL1        0.0717
     14 N         142.7990  141.9140  166.9004 N.pl3   1  UNL1       -0.3341
     15 H         143.3751  142.4884  167.4549 H       1  UNL1        0.1468
     16 C         141.1541  141.6405  168.8927 C.3     1  UNL1        0.0230
     17 C         141.5902  140.7248  169.9979 C.3     1  UNL1        0.0338
     18 C         141.2066  141.0256  171.4165 C.3     1  UNL1        0.1422
     19 O         140.3868  142.2421  171.7299 O.3     1  UNL1       -0.3538
     20 C         139.9507  143.1578  170.6248 C.3     1  UNL1        0.1422
     21 C         140.3344  142.8570  169.2062 C.3     1  UNL1        0.0338
     22 O         144.3335  140.7108  161.2261 O.3     1  UNL1       -0.4755
     23 C         143.6885  141.4622  160.0993 C.3     1  UNL1        0.2054
     24 C         143.4606  142.9401  160.2170 C.3     1  UNL1        0.0473
     25 C         140.8906  142.9803  160.5958 C.3     1  UNL1        0.0001
     26 C         142.2650  143.4578  160.9604 C.3     1  UNL1        0.0037
     27 C         142.4439  144.4529  162.0684 C.3     1  UNL1        0.0001
@<TRIPOS>BOND
     1    25    26    1
     2    26    27    1
     3    26    24    1
     4    24    23    1
     5    23    22    1
     6    22     1    1
     7     1     2   ar
     8     2     3   ar
     9     3     4   ar
    10     4     5   ar
    11     5     6   ar
    12     5     7    1
    13     7     8    1
    14     8     9    1
    15     9    10    1
    16    10    11    1
    17    12    11    1
    18    12    13    1
    19    13    16    1
    20    16    17    1
    21    17    18    1
    22    18    19    1
    23    19    20    1
    24    20    21    1
    25    13    14    1
    26     6     1   ar
    27    12     7    1
    28    21    16    1
    29    14     4    1
    30    14    15    1
@<TRIPOS>MOLECULE
*****
 27 30 0 0 0
SMALL
GASTEIGER

@<TRIPOS>ATOM
      1 C         138.5237  143.2166  162.3220 C.ar    1  UNL1        0.1384
      2 C         138.1221  144.3716  163.1908 C.ar    1  UNL1        0.0381
      3 C         138.5506  144.4137  164.6277 C.ar    1  UNL1        0.0172
      4 C         139.3807  143.3009  165.1958 C.ar    1  UNL1        0.0430
      5 C         139.7823  142.1460  164.3269 C.ar    1  UNL1        0.0207
      6 C         139.3538  142.1039  162.8900 C.ar    1  UNL1        0.0362
      7 C         140.6125  141.0332  164.8949 C.3     1  UNL1        0.1402
      8 O         141.0141  139.8783  164.0261 O.3     1  UNL1       -0.3518
      9 C         141.8442  138.7656  164.5942 C.3     1  UNL1        0.1425
     10 C         142.2727  138.8077  166.0310 C.3     1  UNL1        0.0322
     11 C         141.8711  139.9626  166.8999 C.3     1  UNL1        0.0070
     12 C         141.0410  141.0753  166.3318 C.3     1  UNL1        0.0494
     13 C         140.6393  142.2303  167.2007 C.3     1  UNL1        0.0717
     14 N         139.8092  143.3430  166.6326 N.pl3   1  UNL1       -0.3341
     15 H         139.5456  144.1010  167.2029 H       1  UNL1        0.1468
     16 C         141.0678  142.2724  168.6376 C.3     1  UNL1        0.0230
     17 C         142.4640  142.6911  168.9919 C.3     1  UNL1        0.0338
     18 C         142.8925  142.7332  170.4288 C.3     1  UNL1        0.1422
     19 O         141.9247  142.3567  171.5113 O.3     1  UNL1       -0.3538
     20 C         140.5286  141.9381  171.1570 C.3     1  UNL1        0.1422
     21 C         140.1002  141.8960  169.7201 C.3     1  UNL1        0.0338
     22 O         138.0953  143.1745  160.8851 O.3     1  UNL1       -0.4755
     23 C         138.9651  142.5053  159.8624 C.3     1  UNL1        0.2054
     24 C         138.4888  141.2626  159.1705 C.3     1  UNL1        0.0473
     25 C         139.6204  138.9797  159.6785 C.3     1  UNL1        0.0001
     26 C         138.4974  139.9499  159.8964 C.3     1  UNL1        0.0037
     27 C         137.3829  139.6076  160.8401 C.3     1  UNL1        0.0001
@<TRIPOS>BOND
     1    25    26    1
     2    26    27    1
     3    26    24    1
     4    24    23    1
     5    23    22    1
     6    22     1    1
     7     1     2   ar
     8     2     3   ar
     9     3     4   ar
    10     4     5   ar
    11     5     6   ar
    12     5     7    1
    13     7     8    1
    14     8     9    1
    15     9    10    1
    16    10    11    1
    17    12    11    1
    18    12    13    1
    19    13    16    1
    20    16    17    1
    21    17    18    1
    22    18    19    1
    23    19    20    1
    24    20    21    1
    25    13    14    1
    26     6     1   ar
    27    12     7    1
    28    21    16    1
    29    14     4    1
    30    14    15    1
@<TRIPOS>MOLECULE
*****
 27 30 0 0 0
SMALL
GASTEIGER

@<TRIPOS>ATOM
      1 C         142.0459  142.1526  162.0922 C.ar    1  UNL1        0.1384
      2 C         142.9365  143.1331  162.7962 C.ar    1  UNL1        0.0381
      3 C         142.8962  143.2435  164.2916 C.ar    1  UNL1        0.0172
      4 C         141.9652  142.3734  165.0830 C.ar    1  UNL1        0.0430
      5 C         141.0747  141.3929  164.3791 C.ar    1  UNL1        0.0207
      6 C         141.1150  141.2825  162.8837 C.ar    1  UNL1        0.0362
      7 C         140.1437  140.5228  165.1705 C.3     1  UNL1        0.1402
      8 O         139.2532  139.5424  164.4666 O.3     1  UNL1       -0.3518
      9 C         138.3223  138.6723  165.2580 C.3     1  UNL1        0.1425
     10 C         138.2819  138.7827  166.7534 C.3     1  UNL1        0.0322
     11 C         139.1725  139.7632  167.4573 C.3     1  UNL1        0.0070
     12 C         140.1034  140.6332  166.6659 C.3     1  UNL1        0.0494
     13 C         140.9940  141.6137  167.3698 C.3     1  UNL1        0.0717
     14 N         141.9249  142.4837  166.5784 N.pl3   1  UNL1       -0.3341
     15 H         142.5095  143.1273  167.0404 H       1  UNL1        0.1468
     16 C         140.9537  141.7241  168.8652 C.3     1  UNL1        0.0230
     17 C         141.7838  140.8017  169.7080 C.3     1  UNL1        0.0338
     18 C         141.7435  140.9121  171.2034 C.3     1  UNL1        0.1422
     19 O         140.8731  141.9449  171.8560 O.3     1  UNL1       -0.3538
     20 C         140.0431  142.8672  171.0132 C.3     1  UNL1        0.1422
     21 C         140.0834  142.7568  169.5178 C.3     1  UNL1        0.0338
     22 O         142.0862  142.0422  160.5969 O.3     1  UNL1       -0.4755
     23 C         142.7783  140.8797  159.9490 C.3     1  UNL1        0.2054
     24 C         144.0509  140.3433  160.5346 C.3     1  UNL1        0.0473
     25 C         143.6111  137.8342  161.0451 C.3     1  UNL1        0.0001
     26 C         144.0062  139.2045  161.5098 C.3     1  UNL1        0.0037
     27 C         144.3567  139.4361  162.9497 C.3     1  UNL1        0.0001
@<TRIPOS>BOND
     1    25    26    1
     2    26    27    1
     3    26    24    1
     4    24    23    1
     5    23    22    1
     6    22     1    1
     7     1     2   ar
     8     2     3   ar
     9     3     4   ar
    10     4     5   ar
    11     5     6   ar
    12     5     7    1
    13     7     8    1
    14     8     9    1
    15     9    10    1
    16    10    11    1
    17    12    11    1
    18    12    13    1
    19    13    16    1
    20    16    17    1
    21    17    18    1
    22    18    19    1
    23    19    20    1
    24    20    21    1
    25    13    14    1
    26     6     1   ar
    27    12     7    1
    28    21    16    1
    29    14     4    1
    30    14    15    1
