@<TRIPOS>MOLECULE
*****
 35 38 0 0 0
SMALL
GASTEIGER

@<TRIPOS>ATOM
      1 C         143.0013  140.3538  162.1082 C.3     1  UNL1        0.0690
      2 C         143.7899  139.0932  162.3052 C.3     1  UNL1        0.0485
      3 C         144.3645  138.3750  161.1202 C.3     1  UNL1        0.1436
      4 O         144.1504  138.9176  159.7383 O.3     1  UNL1       -0.3537
      5 C         143.3619  140.1783  159.5413 C.3     1  UNL1        0.1436
      6 C         142.7873  140.8964  160.7262 C.3     1  UNL1        0.0485
      7 N         142.9332  140.2347  163.6020 N.3     1  UNL1       -0.2710
      8 C         143.1483  141.4451  164.4614 C.3     1  UNL1        0.0897
      9 C         143.0803  141.3260  165.9551 C.3     1  UNL1        0.0899
     10 N         142.7971  139.9965  166.5893 N.3     1  UNL1       -0.2665
     11 C         142.5820  138.7861  165.7299 C.3     1  UNL1        0.0899
     12 C         142.6501  138.9053  164.2362 C.3     1  UNL1        0.0897
     13 C         142.7290  139.8774  168.0831 C.3     1  UNL1        0.0992
     14 C         141.7106  140.6652  168.8526 C.ar    1  UNL1       -0.0061
     15 C         142.0561  142.0272  169.3775 C.ar    1  UNL1       -0.0029
     16 C         141.0375  142.8150  170.1471 C.ar    1  UNL1       -0.0003
     17 C         139.6736  142.2407  170.3917 C.ar    1  UNL1       -0.0000
     18 C         139.3281  140.8787  169.8668 C.ar    1  UNL1       -0.0003
     19 C         140.3465  140.0909  169.0973 C.ar    1  UNL1       -0.0029
     20 C         142.1891  141.5732  162.4300 C.3     1  UNL1        0.1143
     21 C         139.9163  142.7098  161.8895 C.2     1  UNL1        0.2304
     22 O         140.6382  143.9605  161.4836 O.2     1  UNL1       -0.2745
     23 N         140.6917  141.5162  162.3626 N.am    1  UNL1       -0.2425
     24 C         139.9698  140.2655  162.7685 C.ar    1  UNL1        0.1373
     25 C         139.7300  139.1783  161.7633 C.ar    1  UNL1        0.0347
     26 C         139.0080  137.9276  162.1691 C.ar    1  UNL1        0.0044
     27 C         138.5259  137.7643  163.5801 C.ar    1  UNL1        0.0232
     28 C         138.7657  138.8516  164.5852 C.ar    1  UNL1        0.1540
     29 N         139.4876  140.1022  164.1794 N.ar    1  UNL1       -0.2263
     30 C         138.2834  138.6882  165.9962 C.3     1  UNL1        0.4349
     31 F         137.8013  138.5249  167.4072 F       1  UNL1       -0.1644
     32 F         138.2955  140.1777  166.1727 F       1  UNL1       -0.1644
     33 F         138.2714  137.1987  165.8197 F       1  UNL1       -0.1644
     34 C         137.5971  143.1318  162.9819 C.3     1  UNL1        0.0101
     35 C         138.4189  142.6529  161.8221 C.3     1  UNL1        0.0857
@<TRIPOS>BOND
     1    34    35    1
     2    35    21    1
     3    21    22    2
     4    21    23   am
     5    23    20    1
     6    20     1    1
     7     1     7    1
     8     7     8    1
     9     8     9    1
    10     9    10    1
    11    10    13    1
    12    13    14    1
    13    14    15   ar
    14    15    16   ar
    15    16    17   ar
    16    17    18   ar
    17    18    19   ar
    18    10    11    1
    19    11    12    1
    20     1     2    1
    21     2     3    1
    22     3     4    1
    23     4     5    1
    24     5     6    1
    25    23    24    1
    26    24    25   ar
    27    25    26   ar
    28    26    27   ar
    29    27    28   ar
    30    28    30    1
    31    30    31    1
    32    30    32    1
    33    30    33    1
    34    28    29   ar
    35     6     1    1
    36    29    24   ar
    37    12     7    1
    38    19    14   ar
@<TRIPOS>MOLECULE
*****
 35 38 0 0 0
SMALL
GASTEIGER

@<TRIPOS>ATOM
      1 C         139.4159  140.5076  162.3045 C.3     1  UNL1        0.0690
      2 C         140.0078  139.1787  161.9392 C.3     1  UNL1        0.0485
      3 C         139.6967  138.5592  160.6090 C.3     1  UNL1        0.1436
      4 O         138.7937  139.2688  159.6441 O.3     1  UNL1       -0.3537
      5 C         138.2018  140.5978  160.0093 C.3     1  UNL1        0.1436
      6 C         138.5129  141.2172  161.3396 C.3     1  UNL1        0.0485
      7 N         140.2090  140.2256  163.5461 N.3     1  UNL1       -0.2710
      8 C         139.5637  140.3553  164.8939 C.3     1  UNL1        0.0897
      9 C         140.3568  140.0733  166.1355 C.3     1  UNL1        0.0899
     10 N         141.7952  139.6616  166.0292 N.3     1  UNL1       -0.2665
     11 C         142.4406  139.5318  164.6814 C.3     1  UNL1        0.0899
     12 C         141.6475  139.8138  163.4398 C.3     1  UNL1        0.0897
     13 C         142.5883  139.3795  167.2708 C.3     1  UNL1        0.0992
     14 C         142.4648  140.2837  168.4612 C.ar    1  UNL1       -0.0061
     15 C         141.8718  139.7658  169.7380 C.ar    1  UNL1       -0.0029
     16 C         141.7482  140.6701  170.9285 C.ar    1  UNL1       -0.0003
     17 C         142.2176  142.0921  170.8421 C.ar    1  UNL1       -0.0000
     18 C         142.8106  142.6100  169.5653 C.ar    1  UNL1       -0.0003
     19 C         142.9342  141.7058  168.3749 C.ar    1  UNL1       -0.0029
     20 C         139.0995  141.7387  163.1010 C.3     1  UNL1        0.1143
     21 C         138.9692  144.2755  162.5557 C.2     1  UNL1        0.2304
     22 O         137.4733  144.2191  162.6508 O.2     1  UNL1       -0.2745
     23 N         139.7823  143.0352  162.7808 N.am    1  UNL1       -0.2425
     24 C         141.2783  143.0916  162.6857 C.ar    1  UNL1        0.1373
     25 C         141.9546  142.8708  161.3651 C.ar    1  UNL1        0.0347
     26 C         143.4505  142.9271  161.2700 C.ar    1  UNL1        0.0044
     27 C         144.2700  143.2043  162.4954 C.ar    1  UNL1        0.0232
     28 C         143.5936  143.4252  163.8159 C.ar    1  UNL1        0.1540
     29 N         142.0977  143.3688  163.9111 N.ar    1  UNL1       -0.2263
     30 C         144.4132  143.7024  165.0413 C.3     1  UNL1        0.4349
     31 F         145.2327  143.9796  166.2667 F       1  UNL1       -0.1644
     32 F         144.3157  145.1750  164.7733 F       1  UNL1       -0.1644
     33 F         144.5106  142.2297  165.3093 F       1  UNL1       -0.1644
     34 C         140.0013  145.9052  160.8152 C.3     1  UNL1        0.0101
     35 C         139.6520  145.5721  162.2354 C.3     1  UNL1        0.0857
@<TRIPOS>BOND
     1    34    35    1
     2    35    21    1
     3    21    22    2
     4    21    23   am
     5    23    20    1
     6    20     1    1
     7     1     7    1
     8     7     8    1
     9     8     9    1
    10     9    10    1
    11    10    13    1
    12    13    14    1
    13    14    15   ar
    14    15    16   ar
    15    16    17   ar
    16    17    18   ar
    17    18    19   ar
    18    10    11    1
    19    11    12    1
    20     1     2    1
    21     2     3    1
    22     3     4    1
    23     4     5    1
    24     5     6    1
    25    23    24    1
    26    24    25   ar
    27    25    26   ar
    28    26    27   ar
    29    27    28   ar
    30    28    30    1
    31    30    31    1
    32    30    32    1
    33    30    33    1
    34    28    29   ar
    35     6     1    1
    36    29    24   ar
    37    12     7    1
    38    19    14   ar
@<TRIPOS>MOLECULE
*****
 35 38 0 0 0
SMALL
GASTEIGER

@<TRIPOS>ATOM
      1 C         140.8892  141.4533  167.7721 C.3     1  UNL1        0.0690
      2 C         142.0212  142.2484  168.3520 C.3     1  UNL1        0.0485
      3 C         142.5007  141.9647  169.7447 C.3     1  UNL1        0.1436
      4 O         141.8482  140.8858  170.5574 O.3     1  UNL1       -0.3537
      5 C         140.7162  140.0908  169.9774 C.3     1  UNL1        0.1436
      6 C         140.2367  140.3745  168.5847 C.3     1  UNL1        0.0485
      7 N         141.1841  142.3661  166.6188 N.3     1  UNL1       -0.2710
      8 C         142.5940  142.5309  166.1342 C.3     1  UNL1        0.0897
      9 C         142.8889  143.4436  164.9810 C.3     1  UNL1        0.0899
     10 N         141.7738  144.1916  164.3124 N.3     1  UNL1       -0.2665
     11 C         140.3638  144.0269  164.7970 C.3     1  UNL1        0.0899
     12 C         140.0690  143.1141  165.9502 C.3     1  UNL1        0.0897
     13 C         142.0687  145.1044  163.1592 C.3     1  UNL1        0.0992
     14 C         141.7207  144.6841  161.7620 C.ar    1  UNL1       -0.0061
     15 C         142.4939  143.5855  161.0947 C.ar    1  UNL1       -0.0029
     16 C         142.1459  143.1652  159.6974 C.ar    1  UNL1       -0.0003
     17 C         141.0247  143.8435  158.9675 C.ar    1  UNL1       -0.0000
     18 C         140.2514  144.9421  159.6348 C.ar    1  UNL1       -0.0003
     19 C         140.5994  145.3624  161.0320 C.ar    1  UNL1       -0.0029
     20 C         139.8596  140.9752  166.7915 C.3     1  UNL1        0.1143
     21 C         139.0119  138.7741  165.7023 C.2     1  UNL1        0.2304
     22 O         137.6423  139.0256  166.2600 O.2     1  UNL1       -0.2745
     23 N         140.1205  139.7489  165.9681 N.am    1  UNL1       -0.2425
     24 C         141.4901  139.4974  165.4104 C.ar    1  UNL1        0.1373
     25 C         142.5310  138.8227  166.2537 C.ar    1  UNL1        0.0347
     26 C         143.9006  138.5712  165.6960 C.ar    1  UNL1        0.0044
     27 C         144.2292  138.9944  164.2950 C.ar    1  UNL1        0.0232
     28 C         143.1883  139.6692  163.4517 C.ar    1  UNL1        0.1540
     29 N         141.8187  139.9207  164.0094 N.ar    1  UNL1       -0.2263
     30 C         143.5170  140.0925  162.0506 C.3     1  UNL1        0.4349
     31 F         143.8456  140.5157  160.6496 F       1  UNL1       -0.1644
     32 F         142.1314  139.7200  161.6132 F       1  UNL1       -0.1644
     33 F         144.9025  140.4649  162.4882 F       1  UNL1       -0.1644
     34 C         138.9925  137.5601  163.4053 C.3     1  UNL1        0.0101
     35 C         139.2727  137.5478  164.8789 C.3     1  UNL1        0.0857
@<TRIPOS>BOND
     1    34    35    1
     2    35    21    1
     3    21    22    2
     4    21    23   am
     5    23    20    1
     6    20     1    1
     7     1     7    1
     8     7     8    1
     9     8     9    1
    10     9    10    1
    11    10    13    1
    12    13    14    1
    13    14    15   ar
    14    15    16   ar
    15    16    17   ar
    16    17    18   ar
    17    18    19   ar
    18    10    11    1
    19    11    12    1
    20     1     2    1
    21     2     3    1
    22     3     4    1
    23     4     5    1
    24     5     6    1
    25    23    24    1
    26    24    25   ar
    27    25    26   ar
    28    26    27   ar
    29    27    28   ar
    30    28    30    1
    31    30    31    1
    32    30    32    1
    33    30    33    1
    34    28    29   ar
    35     6     1    1
    36    29    24   ar
    37    12     7    1
    38    19    14   ar
@<TRIPOS>MOLECULE
*****
 35 38 0 0 0
SMALL
GASTEIGER

@<TRIPOS>ATOM
      1 C         141.2988  139.3586  161.6865 C.3     1  UNL1        0.0690
      2 C         139.9621  138.6980  161.5234 C.3     1  UNL1        0.0485
      3 C         139.5173  138.2293  160.1697 C.3     1  UNL1        0.1436
      4 O         140.4093  138.4213  158.9791 O.3     1  UNL1       -0.3537
      5 C         141.7460  139.0820  159.1422 C.3     1  UNL1        0.1436
      6 C         142.1908  139.5506  160.4959 C.3     1  UNL1        0.0485
      7 N         140.8124  139.4012  163.1049 N.3     1  UNL1       -0.2710
      8 C         141.7219  138.9844  164.2225 C.3     1  UNL1        0.0897
      9 C         141.2354  139.0270  165.6407 C.3     1  UNL1        0.0899
     10 N         139.8395  139.4864  165.9414 N.3     1  UNL1       -0.2665
     11 C         138.9301  139.9032  164.8238 C.3     1  UNL1        0.0899
     12 C         139.4165  139.8606  163.4055 C.3     1  UNL1        0.0897
     13 C         139.3531  139.5290  167.3598 C.3     1  UNL1        0.0992
     14 C         139.6577  140.7182  168.2217 C.ar    1  UNL1       -0.0061
     15 C         140.2962  141.9356  167.6216 C.ar    1  UNL1       -0.0029
     16 C         140.6007  143.1249  168.4836 C.ar    1  UNL1       -0.0003
     17 C         140.2667  143.0967  169.9456 C.ar    1  UNL1       -0.0000
     18 C         139.6282  141.8792  170.5457 C.ar    1  UNL1       -0.0003
     19 C         139.3237  140.6900  169.6838 C.ar    1  UNL1       -0.0029
     20 C         142.4666  140.0341  162.3422 C.3     1  UNL1        0.1143
     21 C         144.0233  142.1028  162.1253 C.2     1  UNL1        0.2304
     22 O         145.2236  141.2041  162.1685 O.2     1  UNL1       -0.2745
     23 N         142.6448  141.5177  162.2122 N.am    1  UNL1       -0.2425
     24 C         141.4446  142.4164  162.1690 C.ar    1  UNL1        0.1373
     25 C         140.8088  142.7558  160.8535 C.ar    1  UNL1        0.0347
     26 C         139.6085  143.6545  160.8103 C.ar    1  UNL1        0.0044
     27 C         139.0442  144.2137  162.0826 C.ar    1  UNL1        0.0232
     28 C         139.6800  143.8742  163.3980 C.ar    1  UNL1        0.1540
     29 N         140.8802  142.9756  163.4413 N.ar    1  UNL1       -0.2263
     30 C         139.1155  144.4335  164.6704 C.3     1  UNL1        0.4349
     31 F         138.5512  144.9926  165.9427 F       1  UNL1       -0.1644
     32 F         137.7694  144.5545  164.0199 F       1  UNL1       -0.1644
     33 F         140.4618  144.3124  165.3208 F       1  UNL1       -0.1644
     34 C         144.0711  144.4664  163.2031 C.3     1  UNL1        0.0101
     35 C         144.2016  143.5865  161.9953 C.3     1  UNL1        0.0857
@<TRIPOS>BOND
     1    34    35    1
     2    35    21    1
     3    21    22    2
     4    21    23   am
     5    23    20    1
     6    20     1    1
     7     1     7    1
     8     7     8    1
     9     8     9    1
    10     9    10    1
    11    10    13    1
    12    13    14    1
    13    14    15   ar
    14    15    16   ar
    15    16    17   ar
    16    17    18   ar
    17    18    19   ar
    18    10    11    1
    19    11    12    1
    20     1     2    1
    21     2     3    1
    22     3     4    1
    23     4     5    1
    24     5     6    1
    25    23    24    1
    26    24    25   ar
    27    25    26   ar
    28    26    27   ar
    29    27    28   ar
    30    28    30    1
    31    30    31    1
    32    30    32    1
    33    30    33    1
    34    28    29   ar
    35     6     1    1
    36    29    24   ar
    37    12     7    1
    38    19    14   ar
@<TRIPOS>MOLECULE
*****
 35 38 0 0 0
SMALL
GASTEIGER

@<TRIPOS>ATOM
      1 C         139.4205  141.8747  162.3355 C.3     1  UNL1        0.0690
      2 C         139.3558  143.1683  163.0919 C.3     1  UNL1        0.0485
      3 C         139.3516  144.4718  162.3496 C.3     1  UNL1        0.1436
      4 O         139.4122  144.4815  160.8508 O.3     1  UNL1       -0.3537
      5 C         139.4769  143.1878  160.0944 C.3     1  UNL1        0.1436
      6 C         139.4811  141.8844  160.8367 C.3     1  UNL1        0.0485
      7 N         139.3772  141.3527  163.7411 N.3     1  UNL1       -0.2710
      8 C         138.4249  140.2519  164.1034 C.3     1  UNL1        0.0897
      9 C         138.3816  139.7299  165.5089 C.3     1  UNL1        0.0899
     10 N         139.2907  140.3088  166.5522 N.3     1  UNL1       -0.2665
     11 C         140.2431  141.4095  166.1900 C.3     1  UNL1        0.0899
     12 C         140.2863  141.9315  164.7844 C.3     1  UNL1        0.0897
     13 C         139.2474  139.7867  167.9579 C.3     1  UNL1        0.0992
     14 C         140.1652  140.3569  168.9983 C.ar    1  UNL1       -0.0061
     15 C         139.6960  141.4758  169.8803 C.ar    1  UNL1       -0.0029
     16 C         140.6139  142.0460  170.9207 C.ar    1  UNL1       -0.0003
     17 C         142.0009  141.4973  171.0791 C.ar    1  UNL1       -0.0000
     18 C         142.4701  140.3784  170.1971 C.ar    1  UNL1       -0.0003
     19 C         141.5523  139.8082  169.1567 C.ar    1  UNL1       -0.0029
     20 C         139.4702  140.3997  162.0673 C.3     1  UNL1        0.1143
     21 C         140.8455  138.8542  160.4957 C.2     1  UNL1        0.2304
     22 O         139.6217  138.6123  159.6627 O.2     1  UNL1       -0.2745
     23 N         140.7697  139.7479  161.6980 N.am    1  UNL1       -0.2425
     24 C         141.9935  139.9898  162.5310 C.ar    1  UNL1        0.1373
     25 C         142.9580  141.0734  162.1498 C.ar    1  UNL1        0.0347
     26 C         144.1818  141.3154  162.9828 C.ar    1  UNL1        0.0044
     27 C         144.4409  140.4736  164.1970 C.ar    1  UNL1        0.0232
     28 C         143.4764  139.3900  164.5782 C.ar    1  UNL1        0.1540
     29 N         142.2526  139.1480  163.7452 N.ar    1  UNL1       -0.2263
     30 C         143.7356  138.5481  165.7924 C.3     1  UNL1        0.4349
     31 F         143.9947  137.7064  167.0066 F       1  UNL1       -0.1644
     32 F         145.2075  138.5890  165.5065 F       1  UNL1       -0.1644
     33 F         142.2636  138.5073  166.0783 F       1  UNL1       -0.1644
     34 C         143.0225  138.8196  159.0780 C.3     1  UNL1        0.0101
     35 C         142.1450  138.2023  160.1264 C.3     1  UNL1        0.0857
@<TRIPOS>BOND
     1    34    35    1
     2    35    21    1
     3    21    22    2
     4    21    23   am
     5    23    20    1
     6    20     1    1
     7     1     7    1
     8     7     8    1
     9     8     9    1
    10     9    10    1
    11    10    13    1
    12    13    14    1
    13    14    15   ar
    14    15    16   ar
    15    16    17   ar
    16    17    18   ar
    17    18    19   ar
    18    10    11    1
    19    11    12    1
    20     1     2    1
    21     2     3    1
    22     3     4    1
    23     4     5    1
    24     5     6    1
    25    23    24    1
    26    24    25   ar
    27    25    26   ar
    28    26    27   ar
    29    27    28   ar
    30    28    30    1
    31    30    31    1
    32    30    32    1
    33    30    33    1
    34    28    29   ar
    35     6     1    1
    36    29    24   ar
    37    12     7    1
    38    19    14   ar
@<TRIPOS>MOLECULE
*****
 35 38 0 0 0
SMALL
GASTEIGER

@<TRIPOS>ATOM
      1 C         143.3400  140.7209  162.2012 C.3     1  UNL1        0.0690
      2 C         143.5867  139.2495  162.3569 C.3     1  UNL1        0.0485
      3 C         143.8982  138.4098  161.1537 C.3     1  UNL1        0.1436
      4 O         143.9630  139.0414  159.7947 O.3     1  UNL1       -0.3537
      5 C         143.7163  140.5127  159.6389 C.3     1  UNL1        0.1436
      6 C         143.4048  141.3525  160.8422 C.3     1  UNL1        0.0485
      7 N         143.1689  140.5837  163.6851 N.3     1  UNL1       -0.2710
      8 C         143.7705  141.6028  164.6068 C.3     1  UNL1        0.0897
      9 C         143.5993  141.4656  166.0907 C.3     1  UNL1        0.0899
     10 N         142.8266  140.3094  166.6528 N.3     1  UNL1       -0.2665
     11 C         142.2251  139.2903  165.7311 C.3     1  UNL1        0.0899
     12 C         142.3962  139.4274  164.2473 C.3     1  UNL1        0.0897
     13 C         142.6555  140.1722  168.1367 C.3     1  UNL1        0.0992
     14 C         141.7114  141.0784  168.8698 C.ar    1  UNL1       -0.0061
     15 C         140.3566  140.5793  169.2766 C.ar    1  UNL1       -0.0029
     16 C         139.4125  141.4856  170.0097 C.ar    1  UNL1       -0.0003
     17 C         139.8231  142.8909  170.3358 C.ar    1  UNL1       -0.0000
     18 C         141.1779  143.3900  169.9290 C.ar    1  UNL1       -0.0003
     19 C         142.1220  142.4838  169.1960 C.ar    1  UNL1       -0.0029
     20 C         143.0339  142.1446  162.5608 C.3     1  UNL1        0.1143
     21 C         141.4015  143.9036  161.5654 C.2     1  UNL1        0.2304
     22 O         142.5538  144.5973  160.9014 O.2     1  UNL1       -0.2745
     23 N         141.6416  142.6773  162.3951 N.am    1  UNL1       -0.2425
     24 C         140.4892  141.9836  163.0592 C.ar    1  UNL1        0.1373
     25 C         140.0806  142.3714  164.4493 C.ar    1  UNL1        0.0347
     26 C         138.9282  141.6777  165.1134 C.ar    1  UNL1        0.0044
     27 C         138.1845  140.5963  164.3872 C.ar    1  UNL1        0.0232
     28 C         138.5932  140.2085  162.9970 C.ar    1  UNL1        0.1540
     29 N         139.7455  140.9021  162.3330 N.ar    1  UNL1       -0.2263
     30 C         137.8495  139.1269  162.2708 C.3     1  UNL1        0.4349
     31 F         137.1058  138.0455  161.5446 F       1  UNL1       -0.1644
     32 F         138.3958  138.1090  163.2275 F       1  UNL1       -0.1644
     33 F         137.3033  140.1449  161.3141 F       1  UNL1       -0.1644
     34 C         139.6555  145.7914  161.9372 C.3     1  UNL1        0.0101
     35 C         140.0091  144.4364  161.3997 C.3     1  UNL1        0.0857
@<TRIPOS>BOND
     1    34    35    1
     2    35    21    1
     3    21    22    2
     4    21    23   am
     5    23    20    1
     6    20     1    1
     7     1     7    1
     8     7     8    1
     9     8     9    1
    10     9    10    1
    11    10    13    1
    12    13    14    1
    13    14    15   ar
    14    15    16   ar
    15    16    17   ar
    16    17    18   ar
    17    18    19   ar
    18    10    11    1
    19    11    12    1
    20     1     2    1
    21     2     3    1
    22     3     4    1
    23     4     5    1
    24     5     6    1
    25    23    24    1
    26    24    25   ar
    27    25    26   ar
    28    26    27   ar
    29    27    28   ar
    30    28    30    1
    31    30    31    1
    32    30    32    1
    33    30    33    1
    34    28    29   ar
    35     6     1    1
    36    29    24   ar
    37    12     7    1
    38    19    14   ar
@<TRIPOS>MOLECULE
*****
 35 38 0 0 0
SMALL
GASTEIGER

@<TRIPOS>ATOM
      1 C         139.0789  141.1189  162.4703 C.3     1  UNL1        0.0690
      2 C         138.3672  142.3088  163.0424 C.3     1  UNL1        0.0485
      3 C         137.8949  143.4072  162.1366 C.3     1  UNL1        0.1436
      4 O         138.1344  143.3156  160.6586 O.3     1  UNL1       -0.3537
      5 C         138.8462  142.1256  160.0866 C.3     1  UNL1        0.1436
      6 C         139.3185  141.0272  160.9924 C.3     1  UNL1        0.0485
      7 N         139.0877  140.7531  163.9251 N.3     1  UNL1       -0.2710
      8 C         138.5120  139.4422  164.3723 C.3     1  UNL1        0.0897
      9 C         138.5208  139.0764  165.8269 C.3     1  UNL1        0.0899
     10 N         139.1052  140.0216  166.8344 N.3     1  UNL1       -0.2665
     11 C         139.6809  141.3326  166.3873 C.3     1  UNL1        0.0899
     12 C         139.6721  141.6983  164.9326 C.3     1  UNL1        0.0897
     13 C         139.1139  139.6558  168.2892 C.3     1  UNL1        0.0992
     14 C         140.0964  140.3034  169.2194 C.ar    1  UNL1       -0.0061
     15 C         139.6718  141.4644  170.0690 C.ar    1  UNL1       -0.0029
     16 C         140.6543  142.1119  170.9994 C.ar    1  UNL1       -0.0003
     17 C         142.0613  141.5984  171.0800 C.ar    1  UNL1       -0.0000
     18 C         142.4859  140.4374  170.2304 C.ar    1  UNL1       -0.0003
     19 C         141.5035  139.7899  169.3002 C.ar    1  UNL1       -0.0029
     20 C         139.7938  139.8018  162.4035 C.3     1  UNL1        0.1143
     21 C         141.8164  138.9687  161.0018 C.2     1  UNL1        0.2304
     22 O         140.8824  138.2138  160.1029 O.2     1  UNL1       -0.2745
     23 N         141.2720  139.7627  162.1521 N.am    1  UNL1       -0.2425
     24 C         142.2059  140.5176  163.0510 C.ar    1  UNL1        0.1373
     25 C         142.8041  139.8414  164.2488 C.ar    1  UNL1        0.0347
     26 C         143.7381  140.5963  165.1477 C.ar    1  UNL1        0.0044
     27 C         144.0737  142.0274  164.8486 C.ar    1  UNL1        0.0232
     28 C         143.4754  142.7035  163.6508 C.ar    1  UNL1        0.1540
     29 N         142.5415  141.9487  162.7519 N.ar    1  UNL1       -0.2263
     30 C         143.8110  144.1347  163.3518 C.3     1  UNL1        0.4349
     31 F         144.1466  145.5657  163.0528 F       1  UNL1       -0.1644
     32 F         144.8484  143.6853  162.3660 F       1  UNL1       -0.1644
     33 F         142.7736  144.5839  164.3376 F       1  UNL1       -0.1644
     34 C         144.1261  137.8270  161.3360 C.3     1  UNL1        0.0101
     35 C         143.2946  138.9295  160.7503 C.3     1  UNL1        0.0857
@<TRIPOS>BOND
     1    34    35    1
     2    35    21    1
     3    21    22    2
     4    21    23   am
     5    23    20    1
     6    20     1    1
     7     1     7    1
     8     7     8    1
     9     8     9    1
    10     9    10    1
    11    10    13    1
    12    13    14    1
    13    14    15   ar
    14    15    16   ar
    15    16    17   ar
    16    17    18   ar
    17    18    19   ar
    18    10    11    1
    19    11    12    1
    20     1     2    1
    21     2     3    1
    22     3     4    1
    23     4     5    1
    24     5     6    1
    25    23    24    1
    26    24    25   ar
    27    25    26   ar
    28    26    27   ar
    29    27    28   ar
    30    28    30    1
    31    30    31    1
    32    30    32    1
    33    30    33    1
    34    28    29   ar
    35     6     1    1
    36    29    24   ar
    37    12     7    1
    38    19    14   ar
@<TRIPOS>MOLECULE
*****
 35 38 0 0 0
SMALL
GASTEIGER

@<TRIPOS>ATOM
      1 C         141.3795  143.9748  161.7288 C.3     1  UNL1        0.0690
      2 C         140.5688  144.9861  162.4838 C.3     1  UNL1        0.0485
      3 C         139.7796  146.0218  161.7392 C.3     1  UNL1        0.1436
      4 O         139.8011  146.0462  160.2395 O.3     1  UNL1       -0.3537
      5 C         140.6118  145.0349  159.4845 C.3     1  UNL1        0.1436
      6 C         141.4010  143.9992  160.2291 C.3     1  UNL1        0.0485
      7 N         141.6752  143.5476  163.1360 N.3     1  UNL1       -0.2710
      8 C         143.0802  143.2085  163.5373 C.3     1  UNL1        0.0897
      9 C         143.3758  142.7814  164.9444 C.3     1  UNL1        0.0899
     10 N         142.2666  142.6933  165.9502 N.3     1  UNL1       -0.2665
     11 C         140.8616  143.0324  165.5490 C.3     1  UNL1        0.0899
     12 C         140.5659  143.4595  164.1418 C.3     1  UNL1        0.0897
     13 C         142.5623  142.2661  167.3574 C.3     1  UNL1        0.0992
     14 C         141.4472  141.8189  168.2555 C.ar    1  UNL1       -0.0061
     15 C         140.8500  140.4533  168.0868 C.ar    1  UNL1       -0.0029
     16 C         139.7349  140.0062  168.9849 C.ar    1  UNL1       -0.0003
     17 C         139.2170  140.9246  170.0518 C.ar    1  UNL1       -0.0000
     18 C         139.8142  142.2903  170.2205 C.ar    1  UNL1       -0.0003
     19 C         140.9292  142.7374  169.3224 C.ar    1  UNL1       -0.0029
     20 C         142.2929  142.8151  161.4625 C.3     1  UNL1        0.1143
     21 C         142.4742  140.6270  160.0735 C.2     1  UNL1        0.2304
     22 O         143.7949  141.0830  159.5276 O.2     1  UNL1       -0.2745
     23 N         141.7232  141.4931  161.0409 N.am    1  UNL1       -0.2425
     24 C         140.4025  141.0372  161.5867 C.ar    1  UNL1        0.1373
     25 C         139.1360  141.3546  160.8483 C.ar    1  UNL1        0.0347
     26 C         137.8153  140.8986  161.3942 C.ar    1  UNL1        0.0044
     27 C         137.7612  140.1253  162.6783 C.ar    1  UNL1        0.0232
     28 C         139.0277  139.8079  163.4166 C.ar    1  UNL1        0.1540
     29 N         140.3484  140.2638  162.8708 N.ar    1  UNL1       -0.2263
     30 C         138.9736  139.0345  164.7008 C.3     1  UNL1        0.4349
     31 F         138.9195  138.2612  165.9849 F       1  UNL1       -0.1644
     32 F         138.8695  140.3184  165.4695 F       1  UNL1       -0.1644
     33 F         139.0777  137.7507  163.9320 F       1  UNL1       -0.1644
     34 C         142.3048  138.0517  160.3723 C.3     1  UNL1        0.0101
     35 C         141.9046  139.3050  159.6518 C.3     1  UNL1        0.0857
@<TRIPOS>BOND
     1    34    35    1
     2    35    21    1
     3    21    22    2
     4    21    23   am
     5    23    20    1
     6    20     1    1
     7     1     7    1
     8     7     8    1
     9     8     9    1
    10     9    10    1
    11    10    13    1
    12    13    14    1
    13    14    15   ar
    14    15    16   ar
    15    16    17   ar
    16    17    18   ar
    17    18    19   ar
    18    10    11    1
    19    11    12    1
    20     1     2    1
    21     2     3    1
    22     3     4    1
    23     4     5    1
    24     5     6    1
    25    23    24    1
    26    24    25   ar
    27    25    26   ar
    28    26    27   ar
    29    27    28   ar
    30    28    30    1
    31    30    31    1
    32    30    32    1
    33    30    33    1
    34    28    29   ar
    35     6     1    1
    36    29    24   ar
    37    12     7    1
    38    19    14   ar
@<TRIPOS>MOLECULE
*****
 35 38 0 0 0
SMALL
GASTEIGER

@<TRIPOS>ATOM
      1 C         140.4554  139.5603  161.6747 C.3     1  UNL1        0.0690
      2 C         139.1157  139.6498  162.3434 C.3     1  UNL1        0.0485
      3 C         137.8629  139.6284  161.5188 C.3     1  UNL1        0.1436
      4 O         137.9498  139.5175  160.0254 O.3     1  UNL1       -0.3537
      5 C         139.2895  139.4280  159.3567 C.3     1  UNL1        0.1436
      6 C         140.5423  139.4493  160.1813 C.3     1  UNL1        0.0485
      7 N         140.8857  139.6510  163.1089 N.3     1  UNL1       -0.2710
      8 C         141.8540  138.6502  163.6661 C.3     1  UNL1        0.0897
      9 C         142.2843  138.7409  165.1002 C.3     1  UNL1        0.0899
     10 N         141.7462  139.8326  165.9770 N.3     1  UNL1       -0.2665
     11 C         140.7779  140.8335  165.4197 C.3     1  UNL1        0.0899
     12 C         140.3476  140.7427  163.9857 C.3     1  UNL1        0.0897
     13 C         142.1765  139.9234  167.4111 C.3     1  UNL1        0.0992
     14 C         141.4168  140.7928  168.3685 C.ar    1  UNL1       -0.0061
     15 C         140.1706  140.2759  169.0242 C.ar    1  UNL1       -0.0029
     16 C         139.4108  141.1454  169.9816 C.ar    1  UNL1       -0.0003
     17 C         139.8972  142.5319  170.2834 C.ar    1  UNL1       -0.0000
     18 C         141.1433  143.0489  169.6278 C.ar    1  UNL1       -0.0003
     19 C         141.9031  142.1794  168.6704 C.ar    1  UNL1       -0.0029
     20 C         141.9445  139.5022  161.5040 C.3     1  UNL1        0.1143
     21 C         143.5681  140.6342  159.8210 C.2     1  UNL1        0.2304
     22 O         143.6931  139.3407  159.0717 O.2     1  UNL1       -0.2745
     23 N         142.6937  140.7149  161.0371 N.am    1  UNL1       -0.2425
     24 C         142.5687  142.0084  161.7864 C.ar    1  UNL1        0.1373
     25 C         141.5614  143.0318  161.3528 C.ar    1  UNL1        0.0347
     26 C         141.4364  144.3253  162.1020 C.ar    1  UNL1        0.0044
     27 C         142.3185  144.5952  163.2848 C.ar    1  UNL1        0.0232
     28 C         143.3257  143.5717  163.7183 C.ar    1  UNL1        0.1540
     29 N         143.4508  142.2783  162.9692 N.ar    1  UNL1       -0.2263
     30 C         144.2079  143.8417  164.9012 C.3     1  UNL1        0.4349
     31 F         145.0900  144.1116  166.0839 F       1  UNL1       -0.1644
     32 F         144.2389  142.3747  165.2127 F       1  UNL1       -0.1644
     33 F         144.1767  145.3086  164.5896 F       1  UNL1       -0.1644
     34 C         143.7252  142.7345  158.2998 C.3     1  UNL1        0.0101
     35 C         144.3173  141.8468  159.3540 C.3     1  UNL1        0.0857
@<TRIPOS>BOND
     1    34    35    1
     2    35    21    1
     3    21    22    2
     4    21    23   am
     5    23    20    1
     6    20     1    1
     7     1     7    1
     8     7     8    1
     9     8     9    1
    10     9    10    1
    11    10    13    1
    12    13    14    1
    13    14    15   ar
    14    15    16   ar
    15    16    17   ar
    16    17    18   ar
    17    18    19   ar
    18    10    11    1
    19    11    12    1
    20     1     2    1
    21     2     3    1
    22     3     4    1
    23     4     5    1
    24     5     6    1
    25    23    24    1
    26    24    25   ar
    27    25    26   ar
    28    26    27   ar
    29    27    28   ar
    30    28    30    1
    31    30    31    1
    32    30    32    1
    33    30    33    1
    34    28    29   ar
    35     6     1    1
    36    29    24   ar
    37    12     7    1
    38    19    14   ar
