@<TRIPOS>MOLECULE
*****
 42 47 0 0 0
SMALL
GASTEIGER

@<TRIPOS>ATOM
      1 C         143.8923  140.0188  157.6644 C.ar    1  UNL1        0.1450
      2 C         144.5316  141.3592  157.4532 C.ar    1  UNL1        0.0371
      3 C         144.6289  142.3315  158.5912 C.ar    1  UNL1       -0.0014
      4 C         144.0869  141.9634  159.9405 C.ar    1  UNL1       -0.0258
      5 C         143.4475  140.6229  160.1518 C.ar    1  UNL1       -0.0215
      6 C         143.3503  139.6507  159.0137 C.ar    1  UNL1        0.0330
      7 C         142.9055  140.2548  161.5011 C.3     1  UNL1        0.0457
      8 C         143.0028  141.2271  162.6392 C.3     1  UNL1        0.0765
      9 C         143.6421  142.5675  162.4280 C.3     1  UNL1        0.0246
     10 C         144.1841  142.9356  161.0786 C.3     1  UNL1        0.0277
     11 N         142.4607  140.8589  163.9886 N.am    1  UNL1       -0.3021
     12 C         141.0284  141.1496  164.3262 C.2     1  UNL1        0.2458
     13 O         140.1382  141.8084  163.3145 O.2     1  UNL1       -0.2701
     14 H         143.0450  140.4265  164.6525 H       1  UNL1        0.1497
     15 C         140.4863  140.7815  165.6755 C.ar    1  UNL1        0.0533
     16 C         141.0654  141.4034  166.9116 C.ar    1  UNL1        0.0043
     17 C         140.5233  141.0352  168.2609 C.ar    1  UNL1       -0.0004
     18 C         139.4021  140.0451  168.3741 C.ar    1  UNL1        0.0037
     19 C         138.8231  139.4232  167.1380 C.ar    1  UNL1        0.0716
     20 C         139.3652  139.7914  165.7887 C.ar    1  UNL1        0.0084
     21 C         141.1023  141.6572  169.4970 C.2     1  UNL1        0.0249
     22 C         142.0174  142.8450  169.5406 C.2     1  UNL1        0.1194
     23 N         142.3485  143.1224  170.9771 N.2     1  UNL1       -0.1510
     24 N         141.6382  142.1061  171.8212 N.2     1  UNL1       -0.1695
     25 C         140.8680  141.2005  170.9064 C.3     1  UNL1        0.1771
     26 C         137.7020  138.4331  167.2512 C.3     1  UNL1        0.4186
     27 F         136.5809  137.4431  167.3643 F       1  UNL1       -0.1659
     28 F         138.0513  137.8832  165.9001 F       1  UNL1       -0.1659
     29 F         137.3527  138.9831  168.6023 F       1  UNL1       -0.1659
     30 O         143.7951  139.0466  156.5263 O.3     1  UNL1       -0.4537
     31 O         142.2131  132.4084  155.7002 O.2     1  UNL1       -0.2747
     32 C         142.2816  133.9013  155.8300 C.2     1  UNL1        0.2275
     33 C         143.5896  134.5682  156.1369 C.3     1  UNL1        0.0903
     34 C         143.6581  136.0610  156.2667 C.3     1  UNL1        0.0419
     35 C         142.4186  136.8869  156.0895 C.ar    1  UNL1        0.0445
     36 C         142.4871  138.3797  156.2193 C.ar    1  UNL1        0.1455
     37 C         141.2475  139.2056  156.0421 C.ar    1  UNL1        0.0579
     38 C         139.9394  138.5387  155.7351 C.ar    1  UNL1        0.1034
     39 N         139.8709  137.0458  155.6054 N.ar    1  UNL1       -0.2291
     40 C         141.1105  136.2199  155.7826 C.ar    1  UNL1        0.1330
     41 N         141.0420  134.7271  155.6528 N.am    1  UNL1       -0.2695
     42 H         140.1835  134.2894  155.4513 H       1  UNL1        0.1562
@<TRIPOS>BOND
     1    31    32    2
     2    32    33    1
     3    33    34    1
     4    34    35    1
     5    35    36   ar
     6    36    30    1
     7    30     1    1
     8     1     2   ar
     9     2     3   ar
    10     3     4   ar
    11     4     5   ar
    12     5     6   ar
    13     5     7    1
    14     7     8    1
    15     8    11    1
    16    11    12   am
    17    12    13    2
    18    12    15    1
    19    15    16   ar
    20    16    17   ar
    21    17    21    1
    22    21    22    2
    23    22    23    1
    24    23    24    2
    25    24    25    1
    26    17    18   ar
    27    18    19   ar
    28    19    26    1
    29    26    27    1
    30    26    28    1
    31    26    29    1
    32    19    20   ar
    33     8     9    1
    34     9    10    1
    35    36    37   ar
    36    37    38   ar
    37    38    39   ar
    38    39    40   ar
    39    40    41    1
    40    41    32   am
    41    40    35   ar
    42     6     1   ar
    43    20    15   ar
    44    10     4    1
    45    25    21    1
    46    11    14    1
    47    41    42    1
@<TRIPOS>MOLECULE
*****
 42 47 0 0 0
SMALL
GASTEIGER

@<TRIPOS>ATOM
      1 C         143.0198  137.4089  157.1106 C.ar    1  UNL1        0.1450
      2 C         142.7869  138.6361  156.2801 C.ar    1  UNL1        0.0371
      3 C         142.0958  139.8259  156.8773 C.ar    1  UNL1       -0.0014
      4 C         141.6376  139.7886  158.3051 C.ar    1  UNL1       -0.0258
      5 C         141.8704  138.5614  159.1357 C.ar    1  UNL1       -0.0215
      6 C         142.5615  137.3716  158.5385 C.ar    1  UNL1        0.0330
      7 C         141.4122  138.5241  160.5635 C.3     1  UNL1        0.0457
      8 C         140.7211  139.7139  161.1607 C.3     1  UNL1        0.0765
      9 C         140.4883  140.9410  160.3302 C.3     1  UNL1        0.0246
     10 C         140.9465  140.9784  158.9023 C.3     1  UNL1        0.0277
     11 N         140.2629  139.6765  162.5886 N.am    1  UNL1       -0.3021
     12 C         141.0402  140.4045  163.6450 C.2     1  UNL1        0.2458
     13 O         142.2756  141.1699  163.2735 O.2     1  UNL1       -0.2701
     14 H         139.4521  139.1742  162.8324 H       1  UNL1        0.1497
     15 C         140.5820  140.3672  165.0728 C.ar    1  UNL1        0.0533
     16 C         141.2864  141.1928  166.1083 C.ar    1  UNL1        0.0043
     17 C         140.8282  141.1554  167.5361 C.ar    1  UNL1       -0.0004
     18 C         139.6657  140.2925  167.9284 C.ar    1  UNL1        0.0037
     19 C         138.9613  139.4670  166.8929 C.ar    1  UNL1        0.0716
     20 C         139.4195  139.5043  165.4650 C.ar    1  UNL1        0.0084
     21 C         141.5326  141.9810  168.5716 C.2     1  UNL1        0.0249
     22 C         143.0145  142.0345  168.7982 C.2     1  UNL1        0.1194
     23 N         143.2765  142.9845  169.9290 N.2     1  UNL1       -0.1510
     24 N         141.9566  143.5182  170.4014 N.2     1  UNL1       -0.1695
     25 C         140.8789  142.8979  169.5625 C.3     1  UNL1        0.1771
     26 C         137.7988  138.6041  167.2852 C.3     1  UNL1        0.4186
     27 F         136.6362  137.7412  167.6774 F       1  UNL1       -0.1659
     28 F         137.7201  139.3105  168.6060 F       1  UNL1       -0.1659
     29 F         137.8774  137.8977  165.9643 F       1  UNL1       -0.1659
     30 O         143.7108  136.2191  156.5133 O.3     1  UNL1       -0.4537
     31 O         144.4109  129.5331  157.9474 O.2     1  UNL1       -0.2747
     32 C         144.0357  130.9075  157.4782 C.2     1  UNL1        0.2275
     33 C         144.8366  132.0959  157.9211 C.3     1  UNL1        0.0903
     34 C         144.4613  133.4703  157.4518 C.3     1  UNL1        0.0419
     35 C         143.2852  133.6563  156.5397 C.ar    1  UNL1        0.0445
     36 C         142.9099  135.0307  156.0705 C.ar    1  UNL1        0.1455
     37 C         141.7338  135.2167  155.1583 C.ar    1  UNL1        0.0579
     38 C         140.9328  134.0283  154.7154 C.ar    1  UNL1        0.1034
     39 N         141.3080  132.6539  155.1846 N.ar    1  UNL1       -0.2291
     40 C         142.4843  132.4679  156.0968 C.ar    1  UNL1        0.1330
     41 N         142.8595  131.0935  156.5660 N.am    1  UNL1       -0.2695
     42 H         142.3338  130.3135  156.2753 H       1  UNL1        0.1562
@<TRIPOS>BOND
     1    31    32    2
     2    32    33    1
     3    33    34    1
     4    34    35    1
     5    35    36   ar
     6    36    30    1
     7    30     1    1
     8     1     2   ar
     9     2     3   ar
    10     3     4   ar
    11     4     5   ar
    12     5     6   ar
    13     5     7    1
    14     7     8    1
    15     8    11    1
    16    11    12   am
    17    12    13    2
    18    12    15    1
    19    15    16   ar
    20    16    17   ar
    21    17    21    1
    22    21    22    2
    23    22    23    1
    24    23    24    2
    25    24    25    1
    26    17    18   ar
    27    18    19   ar
    28    19    26    1
    29    26    27    1
    30    26    28    1
    31    26    29    1
    32    19    20   ar
    33     8     9    1
    34     9    10    1
    35    36    37   ar
    36    37    38   ar
    37    38    39   ar
    38    39    40   ar
    39    40    41    1
    40    41    32   am
    41    40    35   ar
    42     6     1   ar
    43    20    15   ar
    44    10     4    1
    45    25    21    1
    46    11    14    1
    47    41    42    1
@<TRIPOS>MOLECULE
*****
 42 47 0 0 0
SMALL
GASTEIGER

@<TRIPOS>ATOM
      1 C         141.6020  143.4267  157.2163 C.ar    1  UNL1        0.1450
      2 C         141.5940  144.9261  157.2558 C.ar    1  UNL1        0.0371
      3 C         141.1755  145.6413  158.5062 C.ar    1  UNL1       -0.0014
      4 C         140.7649  144.8570  159.7171 C.ar    1  UNL1       -0.0258
      5 C         140.7729  143.3575  159.6776 C.ar    1  UNL1       -0.0215
      6 C         141.1914  142.6423  158.4273 C.ar    1  UNL1        0.0330
      7 C         140.3623  142.5732  160.8885 C.3     1  UNL1        0.0457
      8 C         139.9438  143.2883  162.1389 C.3     1  UNL1        0.0765
      9 C         139.9358  144.7877  162.1784 C.3     1  UNL1        0.0246
     10 C         140.3464  145.5721  160.9674 C.3     1  UNL1        0.0277
     11 N         139.5332  142.5039  163.3498 N.am    1  UNL1       -0.3021
     12 C         140.5355  142.2048  164.4249 C.2     1  UNL1        0.2458
     13 O         141.9484  142.6901  164.2891 O.2     1  UNL1       -0.2701
     14 H         138.6059  142.1855  163.4389 H       1  UNL1        0.1497
     15 C         140.1250  141.4205  165.6358 C.ar    1  UNL1        0.0533
     16 C         140.5052  141.9009  167.0050 C.ar    1  UNL1        0.0043
     17 C         140.0947  141.1166  168.2158 C.ar    1  UNL1       -0.0004
     18 C         139.3039  139.8518  168.0576 C.ar    1  UNL1        0.0037
     19 C         138.9237  139.3713  166.6884 C.ar    1  UNL1        0.0716
     20 C         139.3343  140.1558  165.4775 C.ar    1  UNL1        0.0084
     21 C         140.4749  141.5970  169.5850 C.2     1  UNL1        0.0249
     22 C         139.5403  142.1672  170.6104 C.2     1  UNL1        0.1194
     23 N         140.3443  142.5142  171.8283 N.2     1  UNL1       -0.1510
     24 N         141.7758  142.1584  171.5556 N.2     1  UNL1       -0.1695
     25 C         141.8565  141.5916  170.1692 C.3     1  UNL1        0.1771
     26 C         138.1330  138.1066  166.5301 C.3     1  UNL1        0.4186
     27 F         137.3422  136.8419  166.3718 F       1  UNL1       -0.1659
     28 F         138.9937  137.7142  165.3660 F       1  UNL1       -0.1659
     29 F         137.2723  138.4990  167.6942 F       1  UNL1       -0.1659
     30 O         142.0205  142.7116  155.9660 O.3     1  UNL1       -0.4537
     31 O         141.9400  135.8527  156.4127 O.2     1  UNL1       -0.2747
     32 C         142.2406  137.3188  156.3122 C.2     1  UNL1        0.2275
     33 C         141.1185  138.3132  156.2676 C.3     1  UNL1        0.0903
     34 C         141.4192  139.7794  156.1671 C.3     1  UNL1        0.0419
     35 C         142.8420  140.2511  156.1111 C.ar    1  UNL1        0.0445
     36 C         143.1426  141.7172  156.0106 C.ar    1  UNL1        0.1455
     37 C         144.5654  142.1889  155.9546 C.ar    1  UNL1        0.0579
     38 C         145.6876  141.1945  155.9992 C.ar    1  UNL1        0.1034
     39 N         145.3869  139.7284  156.0997 N.ar    1  UNL1       -0.2291
     40 C         143.9641  139.2567  156.1557 C.ar    1  UNL1        0.1330
     41 N         143.6634  137.7906  156.2562 N.am    1  UNL1       -0.2695
     42 H         144.3999  137.1379  156.2855 H       1  UNL1        0.1562
@<TRIPOS>BOND
     1    31    32    2
     2    32    33    1
     3    33    34    1
     4    34    35    1
     5    35    36   ar
     6    36    30    1
     7    30     1    1
     8     1     2   ar
     9     2     3   ar
    10     3     4   ar
    11     4     5   ar
    12     5     6   ar
    13     5     7    1
    14     7     8    1
    15     8    11    1
    16    11    12   am
    17    12    13    2
    18    12    15    1
    19    15    16   ar
    20    16    17   ar
    21    17    21    1
    22    21    22    2
    23    22    23    1
    24    23    24    2
    25    24    25    1
    26    17    18   ar
    27    18    19   ar
    28    19    26    1
    29    26    27    1
    30    26    28    1
    31    26    29    1
    32    19    20   ar
    33     8     9    1
    34     9    10    1
    35    36    37   ar
    36    37    38   ar
    37    38    39   ar
    38    39    40   ar
    39    40    41    1
    40    41    32   am
    41    40    35   ar
    42     6     1   ar
    43    20    15   ar
    44    10     4    1
    45    25    21    1
    46    11    14    1
    47    41    42    1
@<TRIPOS>MOLECULE
*****
 42 47 0 0 0
SMALL
GASTEIGER

@<TRIPOS>ATOM
      1 C         139.2956  143.7949  156.7605 C.ar    1  UNL1        0.1450
      2 C         139.8136  145.2006  156.8352 C.ar    1  UNL1        0.0371
      3 C         140.3354  145.7396  158.1341 C.ar    1  UNL1       -0.0014
      4 C         140.3391  144.8729  159.3584 C.ar    1  UNL1       -0.0258
      5 C         139.8210  143.4672  159.2838 C.ar    1  UNL1       -0.0215
      6 C         139.2992  142.9281  157.9848 C.ar    1  UNL1        0.0330
      7 C         139.8247  142.6005  160.5080 C.3     1  UNL1        0.0457
      8 C         140.3464  143.1395  161.8069 C.3     1  UNL1        0.0765
      9 C         140.8645  144.5452  161.8816 C.3     1  UNL1        0.0246
     10 C         140.8608  145.4120  160.6573 C.3     1  UNL1        0.0277
     11 N         140.3501  142.2728  163.0312 N.am    1  UNL1       -0.3021
     12 C         139.4315  142.5863  164.1748 C.2     1  UNL1        0.2458
     13 O         138.5092  143.7666  164.0941 O.2     1  UNL1       -0.2701
     14 H         140.9554  141.4982  163.0842 H       1  UNL1        0.1497
     15 C         139.4351  141.7196  165.3991 C.ar    1  UNL1        0.0533
     16 C         140.0869  142.2052  166.6598 C.ar    1  UNL1        0.0043
     17 C         140.0906  141.3385  167.8841 C.ar    1  UNL1       -0.0004
     18 C         139.4423  139.9862  167.8476 C.ar    1  UNL1        0.0037
     19 C         138.7905  139.5007  166.5869 C.ar    1  UNL1        0.0716
     20 C         138.7869  140.3675  165.3626 C.ar    1  UNL1        0.0084
     21 C         140.7424  141.8240  169.1448 C.2     1  UNL1        0.0249
     22 C         140.2985  141.5125  170.5433 C.2     1  UNL1        0.1194
     23 N         141.2343  142.2023  171.4912 N.2     1  UNL1       -0.1510
     24 N         142.2566  142.9401  170.6785 N.2     1  UNL1       -0.1695
     25 C         141.9526  142.7064  169.2283 C.3     1  UNL1        0.1771
     26 C         138.1423  138.1485  166.5505 C.3     1  UNL1        0.4186
     27 F         137.4941  136.7963  166.5140 F       1  UNL1       -0.1659
     28 F         137.2702  138.5354  167.7079 F       1  UNL1       -0.1659
     29 F         139.0145  137.7617  165.3931 F       1  UNL1       -0.1659
     30 O         138.7738  143.2558  155.4616 O.3     1  UNL1       -0.4537
     31 O         139.8811  136.5179  154.6715 O.2     1  UNL1       -0.2747
     32 C         139.3659  137.9129  154.8684 C.2     1  UNL1        0.2275
     33 C         140.3192  139.0710  154.8710 C.3     1  UNL1        0.0903
     34 C         139.8040  140.4659  155.0679 C.3     1  UNL1        0.0419
     35 C         138.3357  140.7028  155.2621 C.ar    1  UNL1        0.0445
     36 C         137.8206  142.0977  155.4590 C.ar    1  UNL1        0.1455
     37 C         136.3522  142.3346  155.6533 C.ar    1  UNL1        0.0579
     38 C         135.3989  141.1764  155.6507 C.ar    1  UNL1        0.1034
     39 N         135.9140  139.7815  155.4538 N.ar    1  UNL1       -0.2291
     40 C         137.3825  139.5447  155.2595 C.ar    1  UNL1        0.1330
     41 N         137.8976  138.1497  155.0626 N.am    1  UNL1       -0.2695
     42 H         137.2719  137.3896  155.0609 H       1  UNL1        0.1562
@<TRIPOS>BOND
     1    31    32    2
     2    32    33    1
     3    33    34    1
     4    34    35    1
     5    35    36   ar
     6    36    30    1
     7    30     1    1
     8     1     2   ar
     9     2     3   ar
    10     3     4   ar
    11     4     5   ar
    12     5     6   ar
    13     5     7    1
    14     7     8    1
    15     8    11    1
    16    11    12   am
    17    12    13    2
    18    12    15    1
    19    15    16   ar
    20    16    17   ar
    21    17    21    1
    22    21    22    2
    23    22    23    1
    24    23    24    2
    25    24    25    1
    26    17    18   ar
    27    18    19   ar
    28    19    26    1
    29    26    27    1
    30    26    28    1
    31    26    29    1
    32    19    20   ar
    33     8     9    1
    34     9    10    1
    35    36    37   ar
    36    37    38   ar
    37    38    39   ar
    38    39    40   ar
    39    40    41    1
    40    41    32   am
    41    40    35   ar
    42     6     1   ar
    43    20    15   ar
    44    10     4    1
    45    25    21    1
    46    11    14    1
    47    41    42    1
@<TRIPOS>MOLECULE
*****
 42 47 0 0 0
SMALL
GASTEIGER

@<TRIPOS>ATOM
      1 C         140.3413  143.3536  157.0489 C.ar    1  UNL1        0.1450
      2 C         140.5934  144.8320  157.0233 C.ar    1  UNL1        0.0371
      3 C         140.5199  145.6275  158.2929 C.ar    1  UNL1       -0.0014
      4 C         140.1943  144.9445  159.5881 C.ar    1  UNL1       -0.0258
      5 C         139.9421  143.4660  159.6137 C.ar    1  UNL1       -0.0215
      6 C         140.0157  142.6706  158.3441 C.ar    1  UNL1        0.0330
      7 C         139.6165  142.7830  160.9088 C.3     1  UNL1        0.0457
      8 C         139.5430  143.5784  162.1784 C.3     1  UNL1        0.0765
      9 C         139.7951  145.0569  162.1528 C.3     1  UNL1        0.0246
     10 C         140.1207  145.7399  160.8577 C.3     1  UNL1        0.0277
     11 N         139.2173  142.8954  163.4736 N.am    1  UNL1       -0.3021
     12 C         140.1219  141.8229  164.0040 C.2     1  UNL1        0.2458
     13 O         141.3522  141.4335  163.2393 O.2     1  UNL1       -0.2701
     14 H         138.4098  143.1510  163.9755 H       1  UNL1        0.1497
     15 C         139.7963  141.1398  165.2992 C.ar    1  UNL1        0.0533
     16 C         140.2019  141.7665  166.6003 C.ar    1  UNL1        0.0043
     17 C         139.8763  141.0834  167.8954 C.ar    1  UNL1       -0.0004
     18 C         139.1451  139.7737  167.8894 C.ar    1  UNL1        0.0037
     19 C         138.7395  139.1470  166.5883 C.ar    1  UNL1        0.0716
     20 C         139.0652  139.8302  165.2932 C.ar    1  UNL1        0.0084
     21 C         140.2818  141.7101  169.1965 C.2     1  UNL1        0.0249
     22 C         140.2995  141.0316  170.5342 C.2     1  UNL1        0.1194
     23 N         140.7695  142.0275  171.5528 N.2     1  UNL1       -0.1510
     24 N         141.0424  143.3213  170.8446 N.2     1  UNL1       -0.1695
     25 C         140.7410  143.1251  169.3883 C.3     1  UNL1        0.1771
     26 C         138.0084  137.8374  166.5824 C.3     1  UNL1        0.4186
     27 F         137.2772  136.5277  166.5764 F       1  UNL1       -0.1659
     28 F         137.1133  138.3320  167.6796 F       1  UNL1       -0.1659
     29 F         138.9034  137.3427  165.4851 F       1  UNL1       -0.1659
     30 O         140.4149  142.5582  155.7793 O.3     1  UNL1       -0.4537
     31 O         133.8097  140.8667  154.9073 O.2     1  UNL1       -0.2747
     32 C         135.2941  140.9544  155.1041 C.2     1  UNL1        0.2275
     33 C         135.9615  142.2951  155.1889 C.3     1  UNL1        0.0903
     34 C         137.4460  142.3828  155.3857 C.3     1  UNL1        0.0419
     35 C         138.2630  141.1299  155.4976 C.ar    1  UNL1        0.0445
     36 C         139.7475  141.2176  155.6944 C.ar    1  UNL1        0.1455
     37 C         140.5645  139.9646  155.8064 C.ar    1  UNL1        0.0579
     38 C         139.8971  138.6239  155.7216 C.ar    1  UNL1        0.1034
     39 N         138.4127  138.5362  155.5248 N.ar    1  UNL1       -0.2291
     40 C         137.5956  139.7892  155.4128 C.ar    1  UNL1        0.1330
     41 N         136.1112  139.7015  155.2160 N.am    1  UNL1       -0.2695
     42 H         135.6731  138.8216  155.1603 H       1  UNL1        0.1562
@<TRIPOS>BOND
     1    31    32    2
     2    32    33    1
     3    33    34    1
     4    34    35    1
     5    35    36   ar
     6    36    30    1
     7    30     1    1
     8     1     2   ar
     9     2     3   ar
    10     3     4   ar
    11     4     5   ar
    12     5     6   ar
    13     5     7    1
    14     7     8    1
    15     8    11    1
    16    11    12   am
    17    12    13    2
    18    12    15    1
    19    15    16   ar
    20    16    17   ar
    21    17    21    1
    22    21    22    2
    23    22    23    1
    24    23    24    2
    25    24    25    1
    26    17    18   ar
    27    18    19   ar
    28    19    26    1
    29    26    27    1
    30    26    28    1
    31    26    29    1
    32    19    20   ar
    33     8     9    1
    34     9    10    1
    35    36    37   ar
    36    37    38   ar
    37    38    39   ar
    38    39    40   ar
    39    40    41    1
    40    41    32   am
    41    40    35   ar
    42     6     1   ar
    43    20    15   ar
    44    10     4    1
    45    25    21    1
    46    11    14    1
    47    41    42    1
@<TRIPOS>MOLECULE
*****
 42 47 0 0 0
SMALL
GASTEIGER

@<TRIPOS>ATOM
      1 C         141.6373  143.6928  156.7995 C.ar    1  UNL1        0.1450
      2 C         141.1676  145.1164  156.7486 C.ar    1  UNL1        0.0371
      3 C         140.6944  145.7953  157.9997 C.ar    1  UNL1       -0.0014
      4 C         140.6910  145.0505  159.3017 C.ar    1  UNL1       -0.0258
      5 C         141.1608  143.6268  159.3527 C.ar    1  UNL1       -0.0215
      6 C         141.6340  142.9480  158.1015 C.ar    1  UNL1        0.0330
      7 C         141.1574  142.8821  160.6547 C.3     1  UNL1        0.0457
      8 C         140.6843  143.5609  161.9058 C.3     1  UNL1        0.0765
      9 C         140.2145  144.9845  161.8549 C.3     1  UNL1        0.0246
     10 C         140.2179  145.7293  160.5528 C.3     1  UNL1        0.0277
     11 N         140.6809  142.8161  163.2079 N.am    1  UNL1       -0.3021
     12 C         139.4067  142.2186  163.7268 C.2     1  UNL1        0.2458
     13 O         138.1358  142.3660  162.9437 O.2     1  UNL1       -0.2701
     14 H         141.5150  142.7194  163.7218 H       1  UNL1        0.1497
     15 C         139.4032  141.4738  165.0288 C.ar    1  UNL1        0.0533
     16 C         140.0539  142.0757  166.2389 C.ar    1  UNL1        0.0043
     17 C         140.0505  141.3309  167.5408 C.ar    1  UNL1       -0.0004
     18 C         139.3964  139.9841  167.6328 C.ar    1  UNL1        0.0037
     19 C         138.7457  139.3822  166.4227 C.ar    1  UNL1        0.0716
     20 C         138.7491  140.1271  165.1207 C.ar    1  UNL1        0.0084
     21 C         140.7012  141.9328  168.7509 C.2     1  UNL1        0.0249
     22 C         140.5593  143.3525  169.2141 C.2     1  UNL1        0.1194
     23 N         141.3785  143.5178  170.4597 N.2     1  UNL1       -0.1510
     24 N         142.0267  142.2003  170.7665 N.2     1  UNL1       -0.1695
     25 C         141.6081  141.2207  169.7104 C.3     1  UNL1        0.1771
     26 C         138.0916  138.0355  166.5146 C.3     1  UNL1        0.4186
     27 F         137.4374  136.6888  166.6065 F       1  UNL1       -0.1659
     28 F         137.2133  138.5377  167.6220 F       1  UNL1       -0.1659
     29 F         138.9698  137.5334  165.4072 F       1  UNL1       -0.1659
     30 O         142.1105  143.0140  155.5484 O.3     1  UNL1       -0.4537
     31 O         148.8681  141.7912  155.8487 O.2     1  UNL1       -0.2747
     32 C         147.4634  142.2423  155.5776 C.2     1  UNL1        0.2275
     33 C         146.3245  141.6608  156.3616 C.3     1  UNL1        0.0903
     34 C         144.9198  142.1119  156.0905 C.3     1  UNL1        0.0419
     35 C         144.6541  143.1444  155.0355 C.ar    1  UNL1        0.0445
     36 C         143.2494  143.5955  154.7644 C.ar    1  UNL1        0.1455
     37 C         142.9837  144.6280  153.7093 C.ar    1  UNL1        0.0579
     38 C         144.1227  145.2096  152.9253 C.ar    1  UNL1        0.1034
     39 N         145.5273  144.7585  153.1964 N.ar    1  UNL1       -0.2291
     40 C         145.7930  143.7259  154.2515 C.ar    1  UNL1        0.1330
     41 N         147.1977  143.2748  154.5226 N.am    1  UNL1       -0.2695
     42 H         147.9452  143.6565  154.0080 H       1  UNL1        0.1562
@<TRIPOS>BOND
     1    31    32    2
     2    32    33    1
     3    33    34    1
     4    34    35    1
     5    35    36   ar
     6    36    30    1
     7    30     1    1
     8     1     2   ar
     9     2     3   ar
    10     3     4   ar
    11     4     5   ar
    12     5     6   ar
    13     5     7    1
    14     7     8    1
    15     8    11    1
    16    11    12   am
    17    12    13    2
    18    12    15    1
    19    15    16   ar
    20    16    17   ar
    21    17    21    1
    22    21    22    2
    23    22    23    1
    24    23    24    2
    25    24    25    1
    26    17    18   ar
    27    18    19   ar
    28    19    26    1
    29    26    27    1
    30    26    28    1
    31    26    29    1
    32    19    20   ar
    33     8     9    1
    34     9    10    1
    35    36    37   ar
    36    37    38   ar
    37    38    39   ar
    38    39    40   ar
    39    40    41    1
    40    41    32   am
    41    40    35   ar
    42     6     1   ar
    43    20    15   ar
    44    10     4    1
    45    25    21    1
    46    11    14    1
    47    41    42    1
@<TRIPOS>MOLECULE
*****
 42 47 0 0 0
SMALL
GASTEIGER

@<TRIPOS>ATOM
      1 C         140.9440  141.4613  164.2074 C.ar    1  UNL1        0.1450
      2 C         142.2558  142.1723  164.3612 C.ar    1  UNL1        0.0371
      3 C         143.4258  141.7806  163.5081 C.ar    1  UNL1       -0.0014
      4 C         143.2840  140.6780  162.5011 C.ar    1  UNL1       -0.0258
      5 C         141.9721  139.9670  162.3472 C.ar    1  UNL1       -0.0215
      6 C         140.8022  140.3587  163.2003 C.ar    1  UNL1        0.0330
      7 C         141.8303  138.8644  161.3402 C.3     1  UNL1        0.0457
      8 C         143.0002  138.4728  160.4870 C.3     1  UNL1        0.0765
      9 C         144.3120  139.1837  160.6409 C.3     1  UNL1        0.0246
     10 C         144.4539  140.2864  161.6480 C.3     1  UNL1        0.0277
     11 N         142.8584  137.3701  159.4800 N.am    1  UNL1       -0.3021
     12 C         142.6015  137.6988  158.0391 C.2     1  UNL1        0.2458
     13 O         142.4865  139.1302  157.6054 O.2     1  UNL1       -0.2701
     14 H         142.9338  136.4307  159.7647 H       1  UNL1        0.1497
     15 C         142.4596  136.5963  157.0321 C.ar    1  UNL1        0.0533
     16 C         143.2161  135.3136  157.2127 C.ar    1  UNL1        0.0043
     17 C         143.0742  134.2111  156.2057 C.ar    1  UNL1       -0.0004
     18 C         142.1758  134.3911  155.0180 C.ar    1  UNL1        0.0037
     19 C         141.4194  135.6737  154.8374 C.ar    1  UNL1        0.0716
     20 C         141.5613  136.7763  155.8445 C.ar    1  UNL1        0.0084
     21 C         143.8307  132.9284  156.3862 C.2     1  UNL1        0.0249
     22 C         144.5103  132.4753  157.6444 C.2     1  UNL1        0.1194
     23 N         145.1400  131.1405  157.3761 N.2     1  UNL1       -0.1510
     24 N         144.8495  130.7687  155.9522 N.2     1  UNL1       -0.1695
     25 C         144.0403  131.8737  155.3405 C.3     1  UNL1        0.1771
     26 C         140.5210  135.8538  153.6497 C.3     1  UNL1        0.4186
     27 F         139.6227  136.0339  152.4621 F       1  UNL1       -0.1659
     28 F         141.5579  135.2213  152.7695 F       1  UNL1       -0.1659
     29 F         139.4841  136.4863  154.5300 F       1  UNL1       -0.1659
     30 O         139.7741  141.8530  165.0605 O.3     1  UNL1       -0.4537
     31 O         140.8073  142.1330  171.8505 O.2     1  UNL1       -0.2747
     32 C         140.4335  141.8363  170.4284 C.2     1  UNL1        0.2275
     33 C         140.8953  142.7433  169.3266 C.3     1  UNL1        0.0903
     34 C         140.5216  142.4465  167.9046 C.3     1  UNL1        0.0419
     35 C         139.6860  141.2427  167.5843 C.ar    1  UNL1        0.0445
     36 C         139.3123  140.9459  166.1623 C.ar    1  UNL1        0.1455
     37 C         138.4767  139.7421  165.8420 C.ar    1  UNL1        0.0579
     38 C         138.0149  138.8350  166.9438 C.ar    1  UNL1        0.1034
     39 N         138.3886  139.1318  168.3658 N.ar    1  UNL1       -0.2291
     40 C         139.2242  140.3357  168.6861 C.ar    1  UNL1        0.1330
     41 N         139.5980  140.6324  170.1081 N.am    1  UNL1       -0.2695
     42 H         139.2949  140.0371  170.8313 H       1  UNL1        0.1562
@<TRIPOS>BOND
     1    31    32    2
     2    32    33    1
     3    33    34    1
     4    34    35    1
     5    35    36   ar
     6    36    30    1
     7    30     1    1
     8     1     2   ar
     9     2     3   ar
    10     3     4   ar
    11     4     5   ar
    12     5     6   ar
    13     5     7    1
    14     7     8    1
    15     8    11    1
    16    11    12   am
    17    12    13    2
    18    12    15    1
    19    15    16   ar
    20    16    17   ar
    21    17    21    1
    22    21    22    2
    23    22    23    1
    24    23    24    2
    25    24    25    1
    26    17    18   ar
    27    18    19   ar
    28    19    26    1
    29    26    27    1
    30    26    28    1
    31    26    29    1
    32    19    20   ar
    33     8     9    1
    34     9    10    1
    35    36    37   ar
    36    37    38   ar
    37    38    39   ar
    38    39    40   ar
    39    40    41    1
    40    41    32   am
    41    40    35   ar
    42     6     1   ar
    43    20    15   ar
    44    10     4    1
    45    25    21    1
    46    11    14    1
    47    41    42    1
@<TRIPOS>MOLECULE
*****
 42 47 0 0 0
SMALL
GASTEIGER

@<TRIPOS>ATOM
      1 C         141.6180  142.0920  156.5049 C.ar    1  UNL1        0.1450
      2 C         143.0662  142.4826  156.4948 C.ar    1  UNL1        0.0371
      3 C         143.8794  142.3802  157.7511 C.ar    1  UNL1       -0.0014
      4 C         143.2444  141.8873  159.0175 C.ar    1  UNL1       -0.0258
      5 C         141.7961  141.4967  159.0276 C.ar    1  UNL1       -0.0215
      6 C         140.9829  141.5991  157.7713 C.ar    1  UNL1        0.0330
      7 C         141.1611  141.0038  160.2940 C.3     1  UNL1        0.0457
      8 C         141.9743  140.9014  161.5503 C.3     1  UNL1        0.0765
      9 C         143.4225  141.2919  161.5402 C.3     1  UNL1        0.0246
     10 C         144.0576  141.7849  160.2737 C.3     1  UNL1        0.0277
     11 N         141.3392  140.4084  162.8167 N.am    1  UNL1       -0.3021
     12 C         141.0549  141.3664  163.9353 C.2     1  UNL1        0.2458
     13 O         141.4057  142.8174  163.7876 O.2     1  UNL1       -0.2701
     14 H         141.1090  139.4562  162.9136 H       1  UNL1        0.1497
     15 C         140.4199  140.8736  165.2017 C.ar    1  UNL1        0.0533
     16 C         140.5898  141.6463  166.4761 C.ar    1  UNL1        0.0043
     17 C         139.9548  141.1534  167.7424 C.ar    1  UNL1       -0.0004
     18 C         139.1497  139.8877  167.7345 C.ar    1  UNL1        0.0037
     19 C         138.9797  139.1150  166.4601 C.ar    1  UNL1        0.0716
     20 C         139.6149  139.6080  165.1937 C.ar    1  UNL1        0.0084
     21 C         140.1248  141.9262  169.0168 C.2     1  UNL1        0.0249
     22 C         140.4967  143.3753  169.1263 C.2     1  UNL1        0.1194
     23 N         140.5544  143.7301  170.5826 N.2     1  UNL1       -0.1510
     24 N         140.2182  142.5005  171.3731 N.2     1  UNL1       -0.1695
     25 C         139.9526  141.3856  170.4054 C.3     1  UNL1        0.1771
     26 C         138.1747  137.8494  166.4522 C.3     1  UNL1        0.4186
     27 F         137.3697  136.5838  166.4442 F       1  UNL1       -0.1659
     28 F         137.3019  138.3977  167.5418 F       1  UNL1       -0.1659
     29 F         139.0476  137.3011  165.3625 F       1  UNL1       -0.1659
     30 O         140.8048  142.1944  155.2486 O.3     1  UNL1       -0.4537
     31 O         139.1878  148.8618  154.8238 O.2     1  UNL1       -0.2747
     32 C         139.2592  147.3677  154.9356 C.2     1  UNL1        0.2275
     33 C         140.5904  146.6767  154.9131 C.3     1  UNL1        0.0903
     34 C         140.6619  145.1826  155.0250 C.3     1  UNL1        0.0419
     35 C         139.4022  144.3795  155.1593 C.ar    1  UNL1        0.0445
     36 C         139.4737  142.8854  155.2711 C.ar    1  UNL1        0.1455
     37 C         138.2140  142.0822  155.4054 C.ar    1  UNL1        0.0579
     38 C         136.8827  142.7731  155.4278 C.ar    1  UNL1        0.1034
     39 N         136.8112  144.2673  155.3160 N.ar    1  UNL1       -0.2291
     40 C         138.0710  145.0704  155.1817 C.ar    1  UNL1        0.1330
     41 N         137.9996  146.5645  155.0699 N.am    1  UNL1       -0.2695
     42 H         137.1258  147.0180  155.0846 H       1  UNL1        0.1562
@<TRIPOS>BOND
     1    31    32    2
     2    32    33    1
     3    33    34    1
     4    34    35    1
     5    35    36   ar
     6    36    30    1
     7    30     1    1
     8     1     2   ar
     9     2     3   ar
    10     3     4   ar
    11     4     5   ar
    12     5     6   ar
    13     5     7    1
    14     7     8    1
    15     8    11    1
    16    11    12   am
    17    12    13    2
    18    12    15    1
    19    15    16   ar
    20    16    17   ar
    21    17    21    1
    22    21    22    2
    23    22    23    1
    24    23    24    2
    25    24    25    1
    26    17    18   ar
    27    18    19   ar
    28    19    26    1
    29    26    27    1
    30    26    28    1
    31    26    29    1
    32    19    20   ar
    33     8     9    1
    34     9    10    1
    35    36    37   ar
    36    37    38   ar
    37    38    39   ar
    38    39    40   ar
    39    40    41    1
    40    41    32   am
    41    40    35   ar
    42     6     1   ar
    43    20    15   ar
    44    10     4    1
    45    25    21    1
    46    11    14    1
    47    41    42    1
@<TRIPOS>MOLECULE
*****
 42 47 0 0 0
SMALL
GASTEIGER

@<TRIPOS>ATOM
      1 C         143.5903  142.3569  164.5526 C.ar    1  UNL1        0.1450
      2 C         144.9416  141.8888  164.1000 C.ar    1  UNL1        0.0371
      3 C         145.2714  141.8519  162.6372 C.ar    1  UNL1       -0.0014
      4 C         144.2499  142.2831  161.6269 C.ar    1  UNL1       -0.0258
      5 C         142.8986  142.7512  162.0795 C.ar    1  UNL1       -0.0215
      6 C         142.5687  142.7881  163.5423 C.ar    1  UNL1        0.0330
      7 C         141.8771  143.1824  161.0692 C.3     1  UNL1        0.0457
      8 C         142.2069  143.1455  159.6064 C.3     1  UNL1        0.0765
      9 C         143.5582  142.6774  159.1538 C.3     1  UNL1        0.0246
     10 C         144.5798  142.2462  160.1641 C.3     1  UNL1        0.0277
     11 N         141.1854  143.5767  158.5961 N.am    1  UNL1       -0.3021
     12 C         141.2403  144.9594  158.0172 C.2     1  UNL1        0.2458
     13 O         142.3167  145.9109  158.4486 O.2     1  UNL1       -0.2701
     14 H         140.4789  142.9522  158.3130 H       1  UNL1        0.1497
     15 C         140.2188  145.3907  157.0070 C.ar    1  UNL1        0.0533
     16 C         140.2096  146.8046  156.5063 C.ar    1  UNL1        0.0043
     17 C         139.1881  147.2358  155.4961 C.ar    1  UNL1       -0.0004
     18 C         138.1758  146.2531  154.9865 C.ar    1  UNL1        0.0037
     19 C         138.1850  144.8392  155.4873 C.ar    1  UNL1        0.0716
     20 C         139.2065  144.4080  156.4976 C.ar    1  UNL1        0.0084
     21 C         139.1789  148.6497  154.9953 C.2     1  UNL1        0.0249
     22 C         139.7424  149.1263  153.6893 C.2     1  UNL1        0.1194
     23 N         139.5163  150.6064  153.5995 N.2     1  UNL1       -0.1510
     24 N         138.8132  151.0447  154.8500 N.2     1  UNL1       -0.1695
     25 C         138.6047  149.8354  155.7126 C.3     1  UNL1        0.1771
     26 C         137.1727  143.8565  154.9778 C.3     1  UNL1        0.4186
     27 F         136.1605  142.8738  154.4683 F       1  UNL1       -0.1659
     28 F         136.6614  144.8839  154.0119 F       1  UNL1       -0.1659
     29 F         137.6840  142.8291  155.9437 F       1  UNL1       -0.1659
     30 O         143.2604  142.3938  166.0154 O.3     1  UNL1       -0.4537
     31 O         140.4602  142.1003  172.2861 O.2     1  UNL1       -0.2747
     32 C         140.8817  141.9619  170.8533 C.2     1  UNL1        0.2275
     33 C         141.9959  142.8091  170.3140 C.3     1  UNL1        0.0903
     34 C         142.4174  142.6707  168.8812 C.3     1  UNL1        0.0419
     35 C         141.7247  141.6850  167.9875 C.ar    1  UNL1        0.0445
     36 C         142.1463  141.5466  166.5546 C.ar    1  UNL1        0.1455
     37 C         141.4536  140.5610  165.6609 C.ar    1  UNL1        0.0579
     38 C         140.3393  139.7137  166.2001 C.ar    1  UNL1        0.1034
     39 N         139.9178  139.8522  167.6330 N.ar    1  UNL1       -0.2291
     40 C         140.6105  140.8379  168.5267 C.ar    1  UNL1        0.1330
     41 N         140.1890  140.9763  169.9596 N.am    1  UNL1       -0.2695
     42 H         139.4577  140.4202  170.3135 H       1  UNL1        0.1562
@<TRIPOS>BOND
     1    31    32    2
     2    32    33    1
     3    33    34    1
     4    34    35    1
     5    35    36   ar
     6    36    30    1
     7    30     1    1
     8     1     2   ar
     9     2     3   ar
    10     3     4   ar
    11     4     5   ar
    12     5     6   ar
    13     5     7    1
    14     7     8    1
    15     8    11    1
    16    11    12   am
    17    12    13    2
    18    12    15    1
    19    15    16   ar
    20    16    17   ar
    21    17    21    1
    22    21    22    2
    23    22    23    1
    24    23    24    2
    25    24    25    1
    26    17    18   ar
    27    18    19   ar
    28    19    26    1
    29    26    27    1
    30    26    28    1
    31    26    29    1
    32    19    20   ar
    33     8     9    1
    34     9    10    1
    35    36    37   ar
    36    37    38   ar
    37    38    39   ar
    38    39    40   ar
    39    40    41    1
    40    41    32   am
    41    40    35   ar
    42     6     1   ar
    43    20    15   ar
    44    10     4    1
    45    25    21    1
    46    11    14    1
    47    41    42    1
