@<TRIPOS>MOLECULE
*****
 37 40 0 0 0
SMALL
GASTEIGER

@<TRIPOS>ATOM
      1 C         142.1125  139.1360  165.2717 C.ar    1  UNL1        0.0831
      2 C         143.0373  140.0096  164.4771 C.ar    1  UNL1        0.0249
      3 C         143.2141  139.3873  163.1237 C.ar    1  UNL1        0.0668
      4 C         144.0124  139.8039  161.9240 C.ar    1  UNL1        0.1333
      5 N         143.9951  138.9623  160.6825 N.ar    1  UNL1       -0.2108
      6 C         143.1795  137.7041  160.6407 C.ar    1  UNL1        0.1773
      7 N         142.3812  137.2875  161.8404 N.ar    1  UNL1       -0.3214
      8 C         142.3985  138.1292  163.0819 C.ar    1  UNL1        0.1443
      9 N         141.7177  137.9738  164.4094 N.ar    1  UNL1       -0.2284
     10 H         141.8459  136.4617  161.8129 H       1  UNL1        0.1689
     11 C         140.7599  139.8722  169.4999 C.ar    1  UNL1        0.0211
     12 C         139.8404  140.1768  168.3546 C.ar    1  UNL1       -0.0006
     13 C         140.2913  139.9314  166.9452 C.ar    1  UNL1        0.0014
     14 C         141.6616  139.3814  166.6811 C.ar    1  UNL1        0.0199
     15 C         142.5810  139.0769  167.8265 C.ar    1  UNL1        0.0309
     16 C         142.1301  139.3222  169.2359 C.ar    1  UNL1        0.1375
     17 F         143.0496  139.0177  170.3812 F       1  UNL1       -0.2045
     18 C         140.3089  140.1177  170.9094 C.3     1  UNL1        0.0979
     19 N         140.4636  141.4789  171.5200 N.3     1  UNL1       -0.2925
     20 H         139.7405  142.0697  171.1094 H       1  UNL1        0.1236
     21 C         141.7598  142.2207  171.3803 C.3     1  UNL1        0.0864
     22 C         142.0313  143.0306  170.1472 C.3     1  UNL1        0.0895
     23 C         143.1440  142.5468  167.8499 C.3     1  UNL1        0.0897
     24 N         143.2601  142.7631  169.3297 N.3     1  UNL1       -0.2691
     25 C         144.6050  142.7118  169.9919 C.3     1  UNL1        0.0897
     26 N         144.8280  141.0621  161.9658 N.pl3   1  UNL1       -0.3139
     27 H         145.7088  141.0634  162.4057 H       1  UNL1        0.1485
     28 CA        144.3016  142.3184  161.3375 C.3     1  UNL1        0.1227
     29 C         143.5067  143.2909  162.1574 C.ar    1  UNL1       -0.0021
     30 C         142.0082  143.2229  162.1574 C.ar    1  UNL1       -0.0026
     31 C         141.2133  144.1954  162.9773 C.ar    1  UNL1       -0.0003
     32 C         141.9168  145.2360  163.7972 C.ar    1  UNL1       -0.0000
     33 C         143.4152  145.3041  163.7972 C.ar    1  UNL1       -0.0003
     34 C         144.2102  144.3315  162.9772 C.ar    1  UNL1       -0.0026
     35 C         144.5701  142.6020  159.8892 C.3     1  UNL1        0.1611
     36 O         145.9582  142.9469  159.4373 O.3     1  UNL1       -0.3799
     37 H         146.2209  143.7982  159.8209 H       1  UNL1        0.2105
@<TRIPOS>BOND
     1    23    24    1
     2    24    25    1
     3    24    22    1
     4    22    21    1
     5    21    19    1
     6    19    18    1
     7    18    11    1
     8    11    12   ar
     9    12    13   ar
    10    13    14   ar
    11    14     1    1
    12     1     2   ar
    13     2     3   ar
    14     3     4   ar
    15     4    26    1
    16    26    28    1
    17    28    35    1
    18    35    36    1
    19    28    29    1
    20    29    30   ar
    21    30    31   ar
    22    31    32   ar
    23    32    33   ar
    24    33    34   ar
    25     4     5   ar
    26     5     6   ar
    27     6     7   ar
    28     7     8   ar
    29     8     9   ar
    30    14    15   ar
    31    15    16   ar
    32    16    17    1
    33    16    11   ar
    34     9     1   ar
    35     8     3    1
    36    34    29   ar
    37    19    20    1
    38    26    27    1
    39    36    37    1
    40     7    10    1
@<TRIPOS>MOLECULE
*****
 37 40 0 0 0
SMALL
GASTEIGER

@<TRIPOS>ATOM
      1 C         141.0221  139.3048  164.0594 C.ar    1  UNL1        0.0831
      2 C         140.9998  140.2863  162.9253 C.ar    1  UNL1        0.0249
      3 C         141.6364  139.6330  161.7344 C.ar    1  UNL1        0.0668
      4 C         141.8912  140.1206  160.3390 C.ar    1  UNL1        0.1333
      5 N         142.5617  139.2231  159.3416 N.ar    1  UNL1       -0.2108
      6 C         142.9774  137.8379  159.7397 C.ar    1  UNL1        0.1773
      7 N         142.7226  137.3504  161.1352 N.ar    1  UNL1       -0.3214
      8 C         142.0521  138.2479  162.1325 C.ar    1  UNL1        0.1443
      9 N         141.6725  138.0450  163.5694 N.ar    1  UNL1       -0.2284
     10 H         142.9955  136.4412  161.3965 H       1  UNL1        0.1689
     11 C         139.4193  140.0148  168.2039 C.ar    1  UNL1        0.0211
     12 C         140.7504  140.5813  167.8073 C.ar    1  UNL1       -0.0006
     13 C         141.2847  140.3447  166.4258 C.ar    1  UNL1        0.0014
     14 C         140.4879  139.5415  165.4410 C.ar    1  UNL1        0.0199
     15 C         139.1568  138.9750  165.8376 C.ar    1  UNL1        0.0309
     16 C         138.6225  139.2117  167.2191 C.ar    1  UNL1        0.1375
     17 F         137.2914  138.6452  167.6157 F       1  UNL1       -0.2045
     18 C         138.8851  140.2515  169.5855 C.3     1  UNL1        0.0979
     19 N         139.6468  139.7567  170.7791 N.3     1  UNL1       -0.2925
     20 H         138.9986  139.7657  171.5666 H       1  UNL1        0.1236
     21 C         140.8846  140.4746  171.2292 C.3     1  UNL1        0.0864
     22 C         140.8354  141.9457  171.5178 C.3     1  UNL1        0.0895
     23 C         140.4356  143.8579  169.8050 C.3     1  UNL1        0.0897
     24 N         141.3709  142.9250  170.5157 N.3     1  UNL1       -0.2691
     25 C         142.8415  142.9714  170.2243 C.3     1  UNL1        0.0897
     26 N         141.4755  141.5059  159.9409 N.pl3   1  UNL1       -0.3139
     27 H         140.5515  141.6773  159.6476 H       1  UNL1        0.1485
     28 CA        142.4677  142.6298  159.9897 C.3     1  UNL1        0.1227
     29 C         142.5960  143.4636  161.2300 C.ar    1  UNL1       -0.0021
     30 C         143.9086  143.5361  161.9525 C.ar    1  UNL1       -0.0026
     31 C         144.0369  144.3699  163.1927 C.ar    1  UNL1       -0.0003
     32 C         142.8527  145.1312  163.7105 C.ar    1  UNL1       -0.0000
     33 C         141.5402  145.0587  162.9881 C.ar    1  UNL1       -0.0003
     34 C         141.4118  144.2249  161.7478 C.ar    1  UNL1       -0.0026
     35 C         143.3315  142.9199  158.7982 C.3     1  UNL1        0.1611
     36 O         143.2909  144.2741  158.1543 O.3     1  UNL1       -0.3799
     37 H         142.4165  144.4185  157.7599 H       1  UNL1        0.2105
@<TRIPOS>BOND
     1    23    24    1
     2    24    25    1
     3    24    22    1
     4    22    21    1
     5    21    19    1
     6    19    18    1
     7    18    11    1
     8    11    12   ar
     9    12    13   ar
    10    13    14   ar
    11    14     1    1
    12     1     2   ar
    13     2     3   ar
    14     3     4   ar
    15     4    26    1
    16    26    28    1
    17    28    35    1
    18    35    36    1
    19    28    29    1
    20    29    30   ar
    21    30    31   ar
    22    31    32   ar
    23    32    33   ar
    24    33    34   ar
    25     4     5   ar
    26     5     6   ar
    27     6     7   ar
    28     7     8   ar
    29     8     9   ar
    30    14    15   ar
    31    15    16   ar
    32    16    17    1
    33    16    11   ar
    34     9     1   ar
    35     8     3    1
    36    34    29   ar
    37    19    20    1
    38    26    27    1
    39    36    37    1
    40     7    10    1
@<TRIPOS>MOLECULE
*****
 37 40 0 0 0
SMALL
GASTEIGER

@<TRIPOS>ATOM
      1 C         140.9330  142.3565  165.4114 C.ar    1  UNL1        0.0831
      2 C         141.2653  142.0724  163.9766 C.ar    1  UNL1        0.0249
      3 C         140.7917  143.2329  163.1525 C.ar    1  UNL1        0.0668
      4 C         140.8489  143.5072  161.6789 C.ar    1  UNL1        0.1333
      5 N         140.2810  144.7827  161.1308 N.ar    1  UNL1       -0.2108
      6 C         139.6560  145.7840  162.0564 C.ar    1  UNL1        0.1773
      7 N         139.5989  145.5098  163.5300 N.ar    1  UNL1       -0.3214
      8 C         140.1667  144.2342  164.0780 C.ar    1  UNL1        0.1443
      9 N         140.2540  143.6926  165.4741 N.ar    1  UNL1       -0.2284
     10 H         139.1886  146.1670  164.1375 H       1  UNL1        0.1689
     11 C         141.8175  139.6722  168.9131 C.ar    1  UNL1        0.0211
     12 C         142.8642  139.9066  167.8646 C.ar    1  UNL1       -0.0006
     13 C         142.5694  140.8014  166.6974 C.ar    1  UNL1        0.0014
     14 C         141.2279  141.4617  166.5787 C.ar    1  UNL1        0.0199
     15 C         140.1811  141.2273  167.6272 C.ar    1  UNL1        0.0309
     16 C         140.4759  140.3325  168.7944 C.ar    1  UNL1        0.1375
     17 F         139.4291  140.0981  169.8429 F       1  UNL1       -0.2045
     18 C         142.1123  138.7774  170.0804 C.3     1  UNL1        0.0979
     19 N         143.4634  138.1396  170.2140 N.3     1  UNL1       -0.2925
     20 H         143.7859  137.9323  169.2688 H       1  UNL1        0.1236
     21 C         143.6222  136.8795  171.0119 C.3     1  UNL1        0.0864
     22 C         144.7611  135.9471  170.7226 C.3     1  UNL1        0.0895
     23 C         147.0231  136.4928  171.8784 C.3     1  UNL1        0.0897
     24 N         145.7810  135.6571  171.7835 N.3     1  UNL1       -0.2691
     25 C         145.5590  134.5313  172.7496 C.3     1  UNL1        0.0897
     26 N         141.4739  142.5058  160.7533 N.pl3   1  UNL1       -0.3139
     27 H         140.9041  141.9074  160.2181 H       1  UNL1        0.1485
     28 CA        142.9672  142.4162  160.6432 C.3     1  UNL1        0.1227
     29 C         143.7691  141.8391  161.7718 C.ar    1  UNL1       -0.0021
     30 C         144.5424  142.7458  162.6829 C.ar    1  UNL1       -0.0026
     31 C         145.3443  142.1687  163.8115 C.ar    1  UNL1       -0.0003
     32 C         145.3731  140.6849  164.0291 C.ar    1  UNL1       -0.0000
     33 C         144.5999  139.7781  163.1181 C.ar    1  UNL1       -0.0003
     34 C         143.7979  140.3552  161.9895 C.ar    1  UNL1       -0.0026
     35 C         143.6585  142.9037  159.4045 C.3     1  UNL1        0.1611
     36 O         143.1111  144.0817  158.6545 O.3     1  UNL1       -0.3799
     37 H         142.2468  143.8525  158.2785 H       1  UNL1        0.2105
@<TRIPOS>BOND
     1    23    24    1
     2    24    25    1
     3    24    22    1
     4    22    21    1
     5    21    19    1
     6    19    18    1
     7    18    11    1
     8    11    12   ar
     9    12    13   ar
    10    13    14   ar
    11    14     1    1
    12     1     2   ar
    13     2     3   ar
    14     3     4   ar
    15     4    26    1
    16    26    28    1
    17    28    35    1
    18    35    36    1
    19    28    29    1
    20    29    30   ar
    21    30    31   ar
    22    31    32   ar
    23    32    33   ar
    24    33    34   ar
    25     4     5   ar
    26     5     6   ar
    27     6     7   ar
    28     7     8   ar
    29     8     9   ar
    30    14    15   ar
    31    15    16   ar
    32    16    17    1
    33    16    11   ar
    34     9     1   ar
    35     8     3    1
    36    34    29   ar
    37    19    20    1
    38    26    27    1
    39    36    37    1
    40     7    10    1
@<TRIPOS>MOLECULE
*****
 37 40 0 0 0
SMALL
GASTEIGER

@<TRIPOS>ATOM
      1 C         139.2703  140.0334  163.5793 C.ar    1  UNL1        0.0831
      2 C         140.4828  140.1597  162.7052 C.ar    1  UNL1        0.0249
      3 C         140.0303  140.1148  161.2757 C.ar    1  UNL1        0.0668
      4 C         140.7843  140.1943  159.9814 C.ar    1  UNL1        0.1333
      5 N         140.0463  140.1198  158.6777 N.ar    1  UNL1       -0.2108
      6 C         138.5542  139.9658  158.6683 C.ar    1  UNL1        0.1773
      7 N         137.8003  139.8863  159.9626 N.ar    1  UNL1       -0.3214
      8 C         138.5383  139.9608  161.2663 C.ar    1  UNL1        0.1443
      9 N         138.0686  139.9105  162.6900 N.ar    1  UNL1       -0.2284
     10 H         136.8210  139.7852  159.9565 H       1  UNL1        0.1689
     11 C         139.2426  140.0247  168.0792 C.ar    1  UNL1        0.0211
     12 C         140.2850  140.8074  167.3371 C.ar    1  UNL1       -0.0006
     13 C         140.2943  140.8103  165.8371 C.ar    1  UNL1        0.0014
     14 C         139.2611  140.0305  165.0793 C.ar    1  UNL1        0.0199
     15 C         138.2187  139.2478  165.8214 C.ar    1  UNL1        0.0309
     16 C         138.2095  139.2449  167.3213 C.ar    1  UNL1        0.1375
     17 F         137.1670  138.4621  168.0634 F       1  UNL1       -0.2045
     18 C         139.2334  140.0218  169.5792 C.3     1  UNL1        0.0979
     19 N         138.9980  141.2987  170.3302 N.3     1  UNL1       -0.2925
     20 H         138.2259  141.7759  169.8649 H       1  UNL1        0.1236
     21 C         140.1050  142.3011  170.4707 C.3     1  UNL1        0.0864
     22 C         141.3879  141.9124  171.1439 C.3     1  UNL1        0.0895
     23 C         142.8227  139.8976  170.3490 C.3     1  UNL1        0.0897
     24 N         142.5257  141.3678  170.3322 N.3     1  UNL1       -0.2691
     25 C         143.3665  142.2934  169.5038 C.3     1  UNL1        0.0897
     26 N         142.2764  140.3484  159.9909 N.pl3   1  UNL1       -0.3139
     27 H         142.7038  141.0362  159.4310 H       1  UNL1        0.1485
     28 CA        143.1172  139.4544  160.8533 C.3     1  UNL1        0.1227
     29 C         143.9837  140.0453  161.9256 C.ar    1  UNL1       -0.0021
     30 C         144.5891  141.4047  161.7364 C.ar    1  UNL1       -0.0026
     31 C         145.4556  141.9957  162.8087 C.ar    1  UNL1       -0.0003
     32 C         145.7167  141.2274  164.0703 C.ar    1  UNL1       -0.0000
     33 C         145.1114  139.8681  164.2595 C.ar    1  UNL1       -0.0003
     34 C         144.2448  139.2770  163.1872 C.ar    1  UNL1       -0.0026
     35 C         143.0915  137.9693  160.6434 C.3     1  UNL1        0.1611
     36 O         142.1876  137.1096  161.4765 O.3     1  UNL1       -0.3799
     37 H         142.4772  137.1378  162.4018 H       1  UNL1        0.2105
@<TRIPOS>BOND
     1    23    24    1
     2    24    25    1
     3    24    22    1
     4    22    21    1
     5    21    19    1
     6    19    18    1
     7    18    11    1
     8    11    12   ar
     9    12    13   ar
    10    13    14   ar
    11    14     1    1
    12     1     2   ar
    13     2     3   ar
    14     3     4   ar
    15     4    26    1
    16    26    28    1
    17    28    35    1
    18    35    36    1
    19    28    29    1
    20    29    30   ar
    21    30    31   ar
    22    31    32   ar
    23    32    33   ar
    24    33    34   ar
    25     4     5   ar
    26     5     6   ar
    27     6     7   ar
    28     7     8   ar
    29     8     9   ar
    30    14    15   ar
    31    15    16   ar
    32    16    17    1
    33    16    11   ar
    34     9     1   ar
    35     8     3    1
    36    34    29   ar
    37    19    20    1
    38    26    27    1
    39    36    37    1
    40     7    10    1
@<TRIPOS>MOLECULE
*****
 37 40 0 0 0
SMALL
GASTEIGER

@<TRIPOS>ATOM
      1 C         140.1814  142.0241  166.0058 C.ar    1  UNL1        0.0831
      2 C         139.2480  141.4371  164.9889 C.ar    1  UNL1        0.0249
      3 C         138.8956  142.5148  164.0067 C.ar    1  UNL1        0.0668
      4 C         138.0156  142.5170  162.7920 C.ar    1  UNL1        0.1333
      5 N         137.8511  143.7721  161.9873 N.ar    1  UNL1       -0.2108
      6 C         138.5666  145.0250  162.3973 C.ar    1  UNL1        0.1773
      7 N         139.4467  145.0228  163.6120 N.ar    1  UNL1       -0.3214
      8 C         139.6112  143.7677  164.4167 C.ar    1  UNL1        0.1443
      9 N         140.4058  143.4644  165.6522 N.ar    1  UNL1       -0.2284
     10 H         139.9163  145.8451  163.8811 H       1  UNL1        0.1689
     11 C         141.9906  139.8463  169.5036 C.ar    1  UNL1        0.0211
     12 C         142.8589  140.2814  168.3605 C.ar    1  UNL1       -0.0006
     13 C         142.2558  141.0073  167.1946 C.ar    1  UNL1        0.0014
     14 C         140.7845  141.2981  167.1718 C.ar    1  UNL1        0.0199
     15 C         139.9162  140.8631  168.3149 C.ar    1  UNL1        0.0309
     16 C         140.5192  140.1372  169.4808 C.ar    1  UNL1        0.1375
     17 F         139.6509  139.7021  170.6240 F       1  UNL1       -0.2045
     18 C         142.5937  139.1204  170.6696 C.3     1  UNL1        0.0979
     19 N         143.0625  137.7045  170.5104 N.3     1  UNL1       -0.2925
     20 H         142.3450  137.1086  170.9234 H       1  UNL1        0.1236
     21 C         144.3732  137.2775  171.1018 C.3     1  UNL1        0.0864
     22 C         144.7064  135.8192  171.2127 C.3     1  UNL1        0.0895
     23 C         147.1354  136.1853  172.0590 C.3     1  UNL1        0.0897
     24 N         145.8714  135.3775  172.0479 N.3     1  UNL1       -0.2691
     25 C         145.7726  134.1280  172.8720 C.3     1  UNL1        0.0897
     26 N         137.3000  141.2640  162.3820 N.pl3   1  UNL1       -0.3139
     27 H         136.3765  141.1035  162.6832 H       1  UNL1        0.1485
     28 CA        137.9915  140.2555  161.5132 C.3     1  UNL1        0.1227
     29 C         139.0033  139.3214  162.1079 C.ar    1  UNL1       -0.0021
     30 C         140.4404  139.4053  161.6863 C.ar    1  UNL1       -0.0026
     31 C         141.4522  138.4712  162.2809 C.ar    1  UNL1       -0.0003
     32 C         141.0270  137.4532  163.2972 C.ar    1  UNL1       -0.0000
     33 C         139.5899  137.3693  163.7188 C.ar    1  UNL1       -0.0003
     34 C         138.5780  138.3034  163.1242 C.ar    1  UNL1       -0.0026
     35 C         137.6711  140.1811  160.0497 C.3     1  UNL1        0.1611
     36 O         138.2635  141.1802  159.1005 O.3     1  UNL1       -0.3799
     37 H         137.9124  142.0624  159.2990 H       1  UNL1        0.2105
@<TRIPOS>BOND
     1    23    24    1
     2    24    25    1
     3    24    22    1
     4    22    21    1
     5    21    19    1
     6    19    18    1
     7    18    11    1
     8    11    12   ar
     9    12    13   ar
    10    13    14   ar
    11    14     1    1
    12     1     2   ar
    13     2     3   ar
    14     3     4   ar
    15     4    26    1
    16    26    28    1
    17    28    35    1
    18    35    36    1
    19    28    29    1
    20    29    30   ar
    21    30    31   ar
    22    31    32   ar
    23    32    33   ar
    24    33    34   ar
    25     4     5   ar
    26     5     6   ar
    27     6     7   ar
    28     7     8   ar
    29     8     9   ar
    30    14    15   ar
    31    15    16   ar
    32    16    17    1
    33    16    11   ar
    34     9     1   ar
    35     8     3    1
    36    34    29   ar
    37    19    20    1
    38    26    27    1
    39    36    37    1
    40     7    10    1
@<TRIPOS>MOLECULE
*****
 37 40 0 0 0
SMALL
GASTEIGER

@<TRIPOS>ATOM
      1 C         138.7673  140.8100  163.2619 C.ar    1  UNL1        0.0831
      2 C         139.1730  142.0113  162.4605 C.ar    1  UNL1        0.0249
      3 C         138.7804  141.7703  161.0329 C.ar    1  UNL1        0.0668
      4 C         138.9295  142.6059  159.7962 C.ar    1  UNL1        0.1333
      5 N         138.4303  142.0913  158.4786 N.ar    1  UNL1       -0.2108
      6 C         137.7821  140.7410  158.3978 C.ar    1  UNL1        0.1773
      7 N         137.6329  139.9054  159.6346 N.ar    1  UNL1       -0.3214
      8 C         138.1321  140.4200  160.9521 C.ar    1  UNL1        0.1443
      9 N         138.1240  139.8266  162.3297 N.ar    1  UNL1       -0.2284
     10 H         137.2075  139.0192  159.5815 H       1  UNL1        0.1689
     11 C         139.3736  140.2541  167.6861 C.ar    1  UNL1        0.0211
     12 C         138.4949  139.3065  166.9246 C.ar    1  UNL1       -0.0006
     13 C         138.2928  139.4918  165.4499 C.ar    1  UNL1        0.0014
     14 C         138.9694  140.6247  164.7367 C.ar    1  UNL1        0.0199
     15 C         139.8482  141.5723  165.4982 C.ar    1  UNL1        0.0309
     16 C         140.0503  141.3870  166.9729 C.ar    1  UNL1        0.1375
     17 F         140.9290  142.3345  167.7344 F       1  UNL1       -0.2045
     18 C         139.5757  140.0687  169.1608 C.3     1  UNL1        0.0979
     19 N         139.0715  141.1032  170.1228 N.3     1  UNL1       -0.2925
     20 H         138.3043  141.5886  169.6578 H       1  UNL1        0.1236
     21 C         140.0005  142.1599  170.6428 C.3     1  UNL1        0.0864
     22 C         141.2647  141.7662  171.3478 C.3     1  UNL1        0.0895
     23 C         143.2907  142.6101  169.9574 C.3     1  UNL1        0.0897
     24 N         142.5067  141.4804  170.5568 N.3     1  UNL1       -0.2691
     25 C         142.9647  140.0650  170.3651 C.3     1  UNL1        0.0897
     26 N         139.5778  143.9562  159.8771 N.pl3   1  UNL1       -0.3139
     27 H         139.0220  144.7683  159.9043 H       1  UNL1        0.1485
     28 CA        141.0731  144.0691  159.9164 C.3     1  UNL1        0.1227
     29 C         141.7729  144.3106  161.2209 C.ar    1  UNL1       -0.0021
     30 C         141.1187  145.1487  162.2791 C.ar    1  UNL1       -0.0026
     31 C         141.8186  145.3903  163.5836 C.ar    1  UNL1       -0.0003
     32 C         143.1726  144.7939  163.8300 C.ar    1  UNL1       -0.0000
     33 C         143.8269  143.9558  162.7718 C.ar    1  UNL1       -0.0003
     34 C         143.1270  143.7142  161.4672 C.ar    1  UNL1       -0.0026
     35 C         141.8684  143.9403  158.6511 C.3     1  UNL1        0.1611
     36 O         142.7049  145.0891  158.1709 O.3     1  UNL1       -0.3799
     37 H         142.1277  145.8290  157.9253 H       1  UNL1        0.2105
@<TRIPOS>BOND
     1    23    24    1
     2    24    25    1
     3    24    22    1
     4    22    21    1
     5    21    19    1
     6    19    18    1
     7    18    11    1
     8    11    12   ar
     9    12    13   ar
    10    13    14   ar
    11    14     1    1
    12     1     2   ar
    13     2     3   ar
    14     3     4   ar
    15     4    26    1
    16    26    28    1
    17    28    35    1
    18    35    36    1
    19    28    29    1
    20    29    30   ar
    21    30    31   ar
    22    31    32   ar
    23    32    33   ar
    24    33    34   ar
    25     4     5   ar
    26     5     6   ar
    27     6     7   ar
    28     7     8   ar
    29     8     9   ar
    30    14    15   ar
    31    15    16   ar
    32    16    17    1
    33    16    11   ar
    34     9     1   ar
    35     8     3    1
    36    34    29   ar
    37    19    20    1
    38    26    27    1
    39    36    37    1
    40     7    10    1
@<TRIPOS>MOLECULE
*****
 37 40 0 0 0
SMALL
GASTEIGER

@<TRIPOS>ATOM
      1 C         140.6229  139.7450  164.7508 C.ar    1  UNL1        0.0831
      2 C         141.0582  140.8657  163.8539 C.ar    1  UNL1        0.0249
      3 C         140.9715  140.3848  162.4357 C.ar    1  UNL1        0.0668
      4 C         141.2746  141.0549  161.1283 C.ar    1  UNL1        0.1333
      5 N         141.0888  140.3071  159.8414 N.ar    1  UNL1       -0.2108
      6 C         140.5999  138.8892  159.8618 C.ar    1  UNL1        0.1773
      7 N         140.2969  138.2191  161.1692 N.ar    1  UNL1       -0.3214
      8 C         140.4827  138.9669  162.4561 C.ar    1  UNL1        0.1443
      9 N         140.2672  138.5715  163.8869 N.ar    1  UNL1       -0.2284
     10 H         139.9760  137.2884  161.1826 H       1  UNL1        0.1689
     11 C         140.4199  139.8796  169.2442 C.ar    1  UNL1        0.0211
     12 C         139.1884  140.1440  168.4295 C.ar    1  UNL1       -0.0006
     13 C         139.2561  140.0991  166.9317 C.ar    1  UNL1        0.0014
     14 C         140.5552  139.7899  166.2486 C.ar    1  UNL1        0.0199
     15 C         141.7866  139.5255  167.0633 C.ar    1  UNL1        0.0309
     16 C         141.7190  139.5703  168.5611 C.ar    1  UNL1        0.1375
     17 F         142.9504  139.3059  169.3757 F       1  UNL1       -0.2045
     18 C         140.3522  139.9244  170.7420 C.3     1  UNL1        0.0979
     19 N         140.5903  141.2168  171.4652 N.3     1  UNL1       -0.2925
     20 H         139.9128  141.8870  171.1013 H       1  UNL1        0.1236
     21 C         141.9345  141.8787  171.3953 C.3     1  UNL1        0.0864
     22 C         142.2189  142.8875  170.3221 C.3     1  UNL1        0.0895
     23 C         143.3478  142.5020  168.0141 C.3     1  UNL1        0.0897
     24 N         143.4587  142.7645  169.4868 N.3     1  UNL1       -0.2691
     25 C         144.8094  142.9041  170.1241 C.3     1  UNL1        0.0897
     26 N         141.7635  142.4729  161.1080 N.pl3   1  UNL1       -0.3139
     27 H         142.7298  142.6602  161.0892 H       1  UNL1        0.1485
     28 CA        140.7800  143.6055  161.1161 C.3     1  UNL1        0.1227
     29 C         139.8598  143.7913  162.2860 C.ar    1  UNL1       -0.0021
     30 C         138.4712  143.2252  162.2453 C.ar    1  UNL1       -0.0026
     31 C         137.5510  143.4110  163.4152 C.ar    1  UNL1       -0.0003
     32 C         138.0193  144.1629  164.6258 C.ar    1  UNL1       -0.0000
     33 C         139.4078  144.7289  164.6665 C.ar    1  UNL1       -0.0003
     34 C         140.3280  144.5431  163.4966 C.ar    1  UNL1       -0.0026
     35 C         140.7167  144.5523  159.9543 C.3     1  UNL1        0.1611
     36 O         141.7867  145.5875  159.7714 O.3     1  UNL1       -0.3799
     37 H         141.7487  146.2244  160.5021 H       1  UNL1        0.2105
@<TRIPOS>BOND
     1    23    24    1
     2    24    25    1
     3    24    22    1
     4    22    21    1
     5    21    19    1
     6    19    18    1
     7    18    11    1
     8    11    12   ar
     9    12    13   ar
    10    13    14   ar
    11    14     1    1
    12     1     2   ar
    13     2     3   ar
    14     3     4   ar
    15     4    26    1
    16    26    28    1
    17    28    35    1
    18    35    36    1
    19    28    29    1
    20    29    30   ar
    21    30    31   ar
    22    31    32   ar
    23    32    33   ar
    24    33    34   ar
    25     4     5   ar
    26     5     6   ar
    27     6     7   ar
    28     7     8   ar
    29     8     9   ar
    30    14    15   ar
    31    15    16   ar
    32    16    17    1
    33    16    11   ar
    34     9     1   ar
    35     8     3    1
    36    34    29   ar
    37    19    20    1
    38    26    27    1
    39    36    37    1
    40     7    10    1
@<TRIPOS>MOLECULE
*****
 37 40 0 0 0
SMALL
GASTEIGER

@<TRIPOS>ATOM
      1 C         141.3373  142.5928  163.6454 C.ar    1  UNL1        0.0831
      2 C         140.2225  142.2103  162.7175 C.ar    1  UNL1        0.0249
      3 C         140.2714  143.1273  161.5314 C.ar    1  UNL1        0.0668
      4 C         139.4213  143.2206  160.2991 C.ar    1  UNL1        0.1333
      5 N         139.7161  144.2629  159.2616 N.ar    1  UNL1       -0.2108
      6 C         140.8612  145.2121  159.4564 C.ar    1  UNL1        0.1773
      7 N         141.7113  145.1188  160.6886 N.ar    1  UNL1       -0.3214
      8 C         141.4165  144.0764  161.7261 C.ar    1  UNL1        0.1443
      9 N         142.0752  143.7461  163.0326 N.ar    1  UNL1       -0.2284
     10 H         142.4629  145.7418  160.8165 H       1  UNL1        0.1689
     11 C         142.2992  140.6259  167.5767 C.ar    1  UNL1        0.0211
     12 C         141.3418  139.9717  166.6253 C.ar    1  UNL1       -0.0006
     13 C         141.0211  140.6273  165.3148 C.ar    1  UNL1        0.0014
     14 C         141.6579  141.9371  164.9559 C.ar    1  UNL1        0.0199
     15 C         142.6154  142.5913  165.9074 C.ar    1  UNL1        0.0309
     16 C         142.9360  141.9357  167.2178 C.ar    1  UNL1        0.1375
     17 F         143.8935  142.5899  168.1693 F       1  UNL1       -0.2045
     18 C         142.6199  139.9702  168.8873 C.3     1  UNL1        0.0979
     19 N         141.5112  139.5197  169.7916 N.3     1  UNL1       -0.2925
     20 H         141.0231  138.7669  169.3064 H       1  UNL1        0.1236
     21 C         140.4647  140.4966  170.2391 C.3     1  UNL1        0.0864
     22 C         140.8362  141.6287  171.1505 C.3     1  UNL1        0.0895
     23 C         142.8171  143.2765  170.8177 C.3     1  UNL1        0.0897
     24 N         141.3841  142.9027  170.5790 N.3     1  UNL1       -0.2691
     25 C         140.4992  143.8029  169.7688 C.3     1  UNL1        0.0897
     26 N         138.2761  142.2714  160.1044 N.pl3   1  UNL1       -0.3139
     27 H         137.3542  142.5701  160.2778 H       1  UNL1        0.1485
     28 CA        138.5358  140.8671  159.6455 C.3     1  UNL1        0.1227
     29 C         138.9588  139.8211  160.6339 C.ar    1  UNL1       -0.0021
     30 C         138.0134  139.3830  161.7130 C.ar    1  UNL1       -0.0026
     31 C         138.4364  138.3370  162.7014 C.ar    1  UNL1       -0.0003
     32 C         139.8048  137.7292  162.6108 C.ar    1  UNL1       -0.0000
     33 C         140.7501  138.1673  161.5318 C.ar    1  UNL1       -0.0003
     34 C         140.3271  139.2133  160.5433 C.ar    1  UNL1       -0.0026
     35 C         138.3724  140.5088  158.1980 C.3     1  UNL1        0.1611
     36 O         137.0062  140.4933  157.5788 O.3     1  UNL1       -0.3799
     37 H         136.4767  139.7874  157.9816 H       1  UNL1        0.2105
@<TRIPOS>BOND
     1    23    24    1
     2    24    25    1
     3    24    22    1
     4    22    21    1
     5    21    19    1
     6    19    18    1
     7    18    11    1
     8    11    12   ar
     9    12    13   ar
    10    13    14   ar
    11    14     1    1
    12     1     2   ar
    13     2     3   ar
    14     3     4   ar
    15     4    26    1
    16    26    28    1
    17    28    35    1
    18    35    36    1
    19    28    29    1
    20    29    30   ar
    21    30    31   ar
    22    31    32   ar
    23    32    33   ar
    24    33    34   ar
    25     4     5   ar
    26     5     6   ar
    27     6     7   ar
    28     7     8   ar
    29     8     9   ar
    30    14    15   ar
    31    15    16   ar
    32    16    17    1
    33    16    11   ar
    34     9     1   ar
    35     8     3    1
    36    34    29   ar
    37    19    20    1
    38    26    27    1
    39    36    37    1
    40     7    10    1
@<TRIPOS>MOLECULE
*****
 37 40 0 0 0
SMALL
GASTEIGER

@<TRIPOS>ATOM
      1 C         143.0860  141.5508  164.4064 C.ar    1  UNL1        0.0831
      2 C         142.6038  142.8145  163.7580 C.ar    1  UNL1        0.0249
      3 C         143.0073  142.7776  162.3137 C.ar    1  UNL1        0.0668
      4 C         142.8030  143.7493  161.1894 C.ar    1  UNL1        0.1333
      5 N         143.3303  143.4345  159.8209 N.ar    1  UNL1       -0.2108
      6 C         144.0619  142.1481  159.5767 C.ar    1  UNL1        0.1773
      7 N         144.2662  141.1764  160.7010 N.ar    1  UNL1       -0.3214
      8 C         143.7389  141.4911  162.0695 C.ar    1  UNL1        0.1443
      9 N         143.7876  140.7329  163.3628 N.ar    1  UNL1       -0.2284
     10 H         144.7464  140.3320  160.5407 H       1  UNL1        0.1689
     11 C         142.5266  140.4129  168.7240 C.ar    1  UNL1        0.0211
     12 C         142.1579  139.4446  167.6394 C.ar    1  UNL1       -0.0006
     13 C         142.3443  139.8239  166.2002 C.ar    1  UNL1        0.0014
     14 C         142.8996  141.1714  165.8456 C.ar    1  UNL1        0.0199
     15 C         143.2683  142.1398  166.9303 C.ar    1  UNL1        0.0309
     16 C         143.0818  141.7605  168.3695 C.ar    1  UNL1        0.1375
     17 F         143.4506  142.7288  169.4541 F       1  UNL1       -0.2045
     18 C         142.3401  140.0336  170.1633 C.3     1  UNL1        0.0979
     19 N         142.2855  138.5872  170.5567 N.3     1  UNL1       -0.2925
     20 H         142.0495  138.5605  171.5487 H       1  UNL1        0.1236
     21 C         143.4919  137.7146  170.3750 C.3     1  UNL1        0.0864
     22 C         144.5206  137.6209  171.4628 C.3     1  UNL1        0.0895
     23 C         144.7232  135.0309  171.4922 C.3     1  UNL1        0.0897
     24 N         145.3600  136.3851  171.5969 N.3     1  UNL1       -0.2691
     25 C         146.8361  136.5032  171.8358 C.3     1  UNL1        0.0897
     26 N         142.0713  145.0358  161.4336 N.pl3   1  UNL1       -0.3139
     27 H         142.5675  145.8390  161.7129 H       1  UNL1        0.1485
     28 CA        140.5836  145.0986  161.2525 C.3     1  UNL1        0.1227
     29 C         139.6739  144.6511  162.3579 C.ar    1  UNL1       -0.0021
     30 C         139.8516  145.1982  163.7433 C.ar    1  UNL1       -0.0026
     31 C         138.9419  144.7507  164.8488 C.ar    1  UNL1       -0.0003
     32 C         137.8545  143.7560  164.5690 C.ar    1  UNL1       -0.0000
     33 C         137.6768  143.2089  163.1837 C.ar    1  UNL1       -0.0003
     34 C         138.5865  143.6564  162.0781 C.ar    1  UNL1       -0.0026
     35 C         140.0056  145.6090  159.9658 C.3     1  UNL1        0.1611
     36 O         139.6787  144.6513  158.8585 O.3     1  UNL1       -0.3799
     37 H         140.4972  144.2539  158.5225 H       1  UNL1        0.2105
@<TRIPOS>BOND
     1    23    24    1
     2    24    25    1
     3    24    22    1
     4    22    21    1
     5    21    19    1
     6    19    18    1
     7    18    11    1
     8    11    12   ar
     9    12    13   ar
    10    13    14   ar
    11    14     1    1
    12     1     2   ar
    13     2     3   ar
    14     3     4   ar
    15     4    26    1
    16    26    28    1
    17    28    35    1
    18    35    36    1
    19    28    29    1
    20    29    30   ar
    21    30    31   ar
    22    31    32   ar
    23    32    33   ar
    24    33    34   ar
    25     4     5   ar
    26     5     6   ar
    27     6     7   ar
    28     7     8   ar
    29     8     9   ar
    30    14    15   ar
    31    15    16   ar
    32    16    17    1
    33    16    11   ar
    34     9     1   ar
    35     8     3    1
    36    34    29   ar
    37    19    20    1
    38    26    27    1
    39    36    37    1
    40     7    10    1
