@<TRIPOS>MOLECULE
*****
 24 26 0 0 0
SMALL
GASTEIGER

@<TRIPOS>ATOM
      1 C         139.6942  143.3138  161.9252 C.2     1  UNL1        0.1388
      2 N         140.5478  142.1843  162.4207 N.2     1  UNL1       -0.2227
      3 C         139.8933  141.6101  163.6422 C.3     1  UNL1        0.2769
      4 C         141.0658  140.6745  163.6379 C.3     1  UNL1        0.0847
      5 N         138.6353  142.3847  163.9016 N.2     1  UNL1       -0.0450
      6 C         138.5122  143.4377  162.8404 C.2     1  UNL1        0.3285
      7 N         137.4021  144.4388  162.7163 N.pl3   1  UNL1       -0.2454
      8 H         136.6658  144.4409  163.3698 H       1  UNL1        0.2885
      9 H         137.4098  145.0937  161.9813 H       1  UNL1        0.2885
     10 C         139.4840  140.8402  164.8628 C.ar    1  UNL1        0.0437
     11 C         138.3704  139.8388  164.7795 C.ar    1  UNL1        0.0017
     12 C         137.9611  139.0691  166.0000 C.ar    1  UNL1       -0.0001
     13 C         138.6654  139.3006  167.3040 C.ar    1  UNL1        0.0000
     14 C         139.7791  140.3020  167.3873 C.ar    1  UNL1        0.0014
     15 C         140.1884  141.0718  166.1667 C.ar    1  UNL1        0.0017
     16 C         140.4835  140.5336  168.6912 C.ar    1  UNL1        0.0192
     17 C         141.9513  140.2491  168.8116 C.ar    1  UNL1        0.0031
     18 C         142.6556  140.4807  170.1156 C.ar    1  UNL1        0.0207
     19 C         141.8922  140.9968  171.2991 C.ar    1  UNL1        0.0989
     20 N         140.4244  141.2812  171.1787 N.ar    1  UNL1       -0.2423
     21 C         139.7200  141.0496  169.8748 C.ar    1  UNL1        0.0988
     22 C         140.3041  145.6219  160.9003 C.3     1  UNL1        0.0066
     23 C         139.9735  144.1693  160.7252 C.3     1  UNL1        0.0475
     24 C         139.9222  143.5723  159.3501 C.3     1  UNL1        0.0066
@<TRIPOS>BOND
     1    22    23    1
     2    23    24    1
     3    23     1    1
     4     1     2    2
     5     2     3    1
     6     3     4    1
     7     3    10    1
     8    10    11   ar
     9    11    12   ar
    10    12    13   ar
    11    13    14   ar
    12    14    16    1
    13    16    17   ar
    14    17    18   ar
    15    18    19   ar
    16    19    20   ar
    17    20    21   ar
    18    14    15   ar
    19     3     5    1
    20     5     6    2
    21     6     7    1
    22     6     1    1
    23    15    10   ar
    24    21    16   ar
    25     7     8    1
    26     7     9    1
@<TRIPOS>MOLECULE
*****
 24 26 0 0 0
SMALL
GASTEIGER

@<TRIPOS>ATOM
      1 C         140.1699  144.0163  162.6833 C.2     1  UNL1        0.1388
      2 N         138.9151  143.2083  162.8337 N.2     1  UNL1       -0.2227
      3 C         139.0978  142.2808  163.9983 C.3     1  UNL1        0.2769
      4 C         137.7075  141.8326  163.6575 C.3     1  UNL1        0.0847
      5 N         140.4655  142.5156  164.5678 N.2     1  UNL1       -0.0450
      6 C         141.1282  143.5882  163.7550 C.2     1  UNL1        0.3285
      7 N         142.5068  144.1363  163.9753 N.pl3   1  UNL1       -0.2454
      8 H         143.0631  143.7890  164.7096 H       1  UNL1        0.2885
      9 H         142.8555  144.8434  163.3856 H       1  UNL1        0.2885
     10 C         138.9898  141.2596  165.0918 C.ar    1  UNL1        0.0437
     11 C         138.1318  140.0442  164.9008 C.ar    1  UNL1        0.0017
     12 C         138.0239  139.0231  165.9943 C.ar    1  UNL1       -0.0001
     13 C         138.7739  139.2174  167.2786 C.ar    1  UNL1        0.0000
     14 C         139.6319  140.4328  167.4696 C.ar    1  UNL1        0.0014
     15 C         139.7399  141.4539  166.3762 C.ar    1  UNL1        0.0017
     16 C         140.3820  140.6272  168.7540 C.ar    1  UNL1        0.0192
     17 C         141.7894  140.1250  168.8840 C.ar    1  UNL1        0.0031
     18 C         142.5395  140.3193  170.1684 C.ar    1  UNL1        0.0207
     19 C         141.8821  141.0158  171.3228 C.ar    1  UNL1        0.0989
     20 N         140.4747  141.5180  171.1928 N.ar    1  UNL1       -0.2423
     21 C         139.7246  141.3236  169.9084 C.ar    1  UNL1        0.0988
     22 C         139.7107  146.3859  161.7221 C.3     1  UNL1        0.0066
     23 C         140.4223  145.0677  161.6437 C.3     1  UNL1        0.0475
     24 C         141.3862  144.8011  160.5258 C.3     1  UNL1        0.0066
@<TRIPOS>BOND
     1    22    23    1
     2    23    24    1
     3    23     1    1
     4     1     2    2
     5     2     3    1
     6     3     4    1
     7     3    10    1
     8    10    11   ar
     9    11    12   ar
    10    12    13   ar
    11    13    14   ar
    12    14    16    1
    13    16    17   ar
    14    17    18   ar
    15    18    19   ar
    16    19    20   ar
    17    20    21   ar
    18    14    15   ar
    19     3     5    1
    20     5     6    2
    21     6     7    1
    22     6     1    1
    23    15    10   ar
    24    21    16   ar
    25     7     8    1
    26     7     9    1
@<TRIPOS>MOLECULE
*****
 24 26 0 0 0
SMALL
GASTEIGER

@<TRIPOS>ATOM
      1 C         139.5953  139.4050  161.6573 C.2     1  UNL1        0.1388
      2 N         139.4803  138.4102  162.7741 N.2     1  UNL1       -0.2227
      3 C         140.3452  138.8814  163.9054 C.3     1  UNL1        0.2769
      4 C         139.8551  137.6396  164.5893 C.3     1  UNL1        0.0847
      5 N         140.9947  140.1674  163.4879 N.2     1  UNL1       -0.0450
      6 C         140.5313  140.4911  162.0984 C.2     1  UNL1        0.3285
      7 N         140.9332  141.6901  161.2919 N.pl3   1  UNL1       -0.2454
      8 H         141.5567  142.3514  161.6702 H       1  UNL1        0.2885
      9 H         140.5735  141.8158  160.3841 H       1  UNL1        0.2885
     10 C         141.1077  139.0930  165.1798 C.ar    1  UNL1        0.0437
     11 C         142.4141  138.3890  165.3978 C.ar    1  UNL1        0.0017
     12 C         143.1765  138.6005  166.6721 C.ar    1  UNL1       -0.0001
     13 C         142.6325  139.5161  167.7284 C.ar    1  UNL1        0.0000
     14 C         141.3260  140.2201  167.5104 C.ar    1  UNL1        0.0014
     15 C         140.5636  140.0086  166.2361 C.ar    1  UNL1        0.0017
     16 C         140.7820  141.1357  168.5667 C.ar    1  UNL1        0.0192
     17 C         141.1600  142.5873  168.5682 C.ar    1  UNL1        0.0031
     18 C         140.6160  143.5029  169.6245 C.ar    1  UNL1        0.0207
     19 C         139.6940  142.9669  170.6792 C.ar    1  UNL1        0.0989
     20 N         139.3159  141.5154  170.6777 N.ar    1  UNL1       -0.2423
     21 C         139.8600  140.5998  169.6214 C.ar    1  UNL1        0.0988
     22 C         139.5954  138.7226  159.1505 C.3     1  UNL1        0.0066
     23 C         138.8969  139.3275  160.3321 C.3     1  UNL1        0.0475
     24 C         137.5001  139.8550  160.1884 C.3     1  UNL1        0.0066
@<TRIPOS>BOND
     1    22    23    1
     2    23    24    1
     3    23     1    1
     4     1     2    2
     5     2     3    1
     6     3     4    1
     7     3    10    1
     8    10    11   ar
     9    11    12   ar
    10    12    13   ar
    11    13    14   ar
    12    14    16    1
    13    16    17   ar
    14    17    18   ar
    15    18    19   ar
    16    19    20   ar
    17    20    21   ar
    18    14    15   ar
    19     3     5    1
    20     5     6    2
    21     6     7    1
    22     6     1    1
    23    15    10   ar
    24    21    16   ar
    25     7     8    1
    26     7     9    1
@<TRIPOS>MOLECULE
*****
 24 26 0 0 0
SMALL
GASTEIGER

@<TRIPOS>ATOM
      1 C         142.1442  142.1093  168.5408 C.2     1  UNL1        0.1388
      2 N         142.3385  141.9577  167.0612 N.2     1  UNL1       -0.2227
      3 C         141.1115  142.4826  166.3764 C.3     1  UNL1        0.2769
      4 C         141.8395  142.0996  165.1220 C.3     1  UNL1        0.0847
      5 N         140.1588  142.9586  167.4327 N.2     1  UNL1       -0.0450
      6 C         140.7971  142.7279  168.7705 C.2     1  UNL1        0.3285
      7 N         140.1941  143.0577  170.1037 N.pl3   1  UNL1       -0.2454
      8 H         139.2988  143.4644  170.1519 H       1  UNL1        0.2885
      9 H         140.6937  142.8677  170.9304 H       1  UNL1        0.2885
     10 C         140.0366  142.9275  165.4293 C.ar    1  UNL1        0.0437
     11 C         139.2441  144.1666  165.7229 C.ar    1  UNL1        0.0017
     12 C         138.1693  144.6114  164.7759 C.ar    1  UNL1       -0.0001
     13 C         137.8871  143.8170  163.5352 C.ar    1  UNL1        0.0000
     14 C         138.6796  142.5778  163.2416 C.ar    1  UNL1        0.0014
     15 C         139.7544  142.1330  164.1886 C.ar    1  UNL1        0.0017
     16 C         138.3973  141.7834  162.0009 C.ar    1  UNL1        0.0192
     17 C         137.8242  140.4015  162.1094 C.ar    1  UNL1        0.0031
     18 C         137.5419  139.6071  160.8688 C.ar    1  UNL1        0.0207
     19 C         137.8327  140.1946  159.5196 C.ar    1  UNL1        0.0989
     20 N         138.4059  141.5765  159.4112 N.ar    1  UNL1       -0.2423
     21 C         138.6881  142.3709  160.6518 C.ar    1  UNL1        0.0988
     22 C         142.9623  140.4062  170.3241 C.3     1  UNL1        0.0066
     23 C         143.1248  141.7121  169.6041 C.3     1  UNL1        0.0475
     24 C         144.2679  142.6206  169.9474 C.3     1  UNL1        0.0066
@<TRIPOS>BOND
     1    22    23    1
     2    23    24    1
     3    23     1    1
     4     1     2    2
     5     2     3    1
     6     3     4    1
     7     3    10    1
     8    10    11   ar
     9    11    12   ar
    10    12    13   ar
    11    13    14   ar
    12    14    16    1
    13    16    17   ar
    14    17    18   ar
    15    18    19   ar
    16    19    20   ar
    17    20    21   ar
    18    14    15   ar
    19     3     5    1
    20     5     6    2
    21     6     7    1
    22     6     1    1
    23    15    10   ar
    24    21    16   ar
    25     7     8    1
    26     7     9    1
@<TRIPOS>MOLECULE
*****
 24 26 0 0 0
SMALL
GASTEIGER

@<TRIPOS>ATOM
      1 C         140.9415  141.9917  168.6608 C.2     1  UNL1        0.1388
      2 N         140.9896  142.2104  167.1776 N.2     1  UNL1       -0.2227
      3 C         140.5749  140.9342  166.5073 C.3     1  UNL1        0.2769
      4 C         140.8025  141.7086  165.2430 C.3     1  UNL1        0.0847
      5 N         140.2706  139.9267  167.5761 N.2     1  UNL1       -0.0450
      6 C         140.4972  140.5803  168.9072 C.2     1  UNL1        0.3285
      7 N         140.3120  139.9357  170.2488 N.pl3   1  UNL1       -0.2454
      8 H         140.0155  138.9988  170.3081 H       1  UNL1        0.2885
      9 H         140.4869  140.4496  171.0702 H       1  UNL1        0.2885
     10 C         140.2079  139.8198  165.5726 C.ar    1  UNL1        0.0437
     11 C         139.0856  138.8876  165.9211 C.ar    1  UNL1        0.0017
     12 C         138.7186  137.7734  164.9864 C.ar    1  UNL1       -0.0001
     13 C         139.4738  137.5913  163.7033 C.ar    1  UNL1        0.0000
     14 C         140.5961  138.5235  163.3548 C.ar    1  UNL1        0.0014
     15 C         140.9631  139.6378  164.2894 C.ar    1  UNL1        0.0017
     16 C         141.3513  138.3414  162.0716 C.ar    1  UNL1        0.0192
     17 C         142.8101  137.9937  162.1028 C.ar    1  UNL1        0.0031
     18 C         143.5653  137.8116  160.8196 C.ar    1  UNL1        0.0207
     19 C         142.8618  137.9773  159.5053 C.ar    1  UNL1        0.0989
     20 N         141.4030  138.3251  159.4741 N.ar    1  UNL1       -0.2423
     21 C         140.6478  138.5071  160.7573 C.ar    1  UNL1        0.0988
     22 C         142.6134  142.9632  170.3960 C.3     1  UNL1        0.0066
     23 C         141.2786  143.0062  169.7130 C.3     1  UNL1        0.0475
     24 C         140.2809  144.0637  170.0822 C.3     1  UNL1        0.0066
@<TRIPOS>BOND
     1    22    23    1
     2    23    24    1
     3    23     1    1
     4     1     2    2
     5     2     3    1
     6     3     4    1
     7     3    10    1
     8    10    11   ar
     9    11    12   ar
    10    12    13   ar
    11    13    14   ar
    12    14    16    1
    13    16    17   ar
    14    17    18   ar
    15    18    19   ar
    16    19    20   ar
    17    20    21   ar
    18    14    15   ar
    19     3     5    1
    20     5     6    2
    21     6     7    1
    22     6     1    1
    23    15    10   ar
    24    21    16   ar
    25     7     8    1
    26     7     9    1
@<TRIPOS>MOLECULE
*****
 24 26 0 0 0
SMALL
GASTEIGER

@<TRIPOS>ATOM
      1 C         141.0180  138.7175  161.4387 C.2     1  UNL1        0.1388
      2 N         141.1416  137.7851  162.6072 N.2     1  UNL1       -0.2227
      3 C         140.5207  138.4510  163.7993 C.3     1  UNL1        0.2769
      4 C         140.9155  137.1912  164.5113 C.3     1  UNL1        0.0847
      5 N         140.0133  139.7949  163.3676 N.2     1  UNL1       -0.0450
      6 C         140.3206  139.9597  161.9086 C.2     1  UNL1        0.3285
      7 N         139.9889  141.1564  161.0674 N.pl3   1  UNL1       -0.2454
      8 H         139.5271  141.9276  161.4690 H       1  UNL1        0.2885
      9 H         140.2330  141.1707  160.1138 H       1  UNL1        0.2885
     10 C         139.9823  138.8535  165.1402 C.ar    1  UNL1        0.0437
     11 C         138.6277  138.3802  165.5774 C.ar    1  UNL1        0.0017
     12 C         138.0893  138.7827  166.9183 C.ar    1  UNL1       -0.0001
     13 C         138.9055  139.6585  167.8221 C.ar    1  UNL1        0.0000
     14 C         140.2601  140.1317  167.3850 C.ar    1  UNL1        0.0014
     15 C         140.7985  139.7292  166.0440 C.ar    1  UNL1        0.0017
     16 C         141.0763  141.0075  168.2888 C.ar    1  UNL1        0.0192
     17 C         140.4978  142.2869  168.8163 C.ar    1  UNL1        0.0031
     18 C         141.3140  143.1626  169.7201 C.ar    1  UNL1        0.0207
     19 C         142.7088  142.7590  170.0964 C.ar    1  UNL1        0.0989
     20 N         143.2873  141.4795  169.5688 N.ar    1  UNL1       -0.2423
     21 C         142.4711  140.6038  168.6650 C.ar    1  UNL1        0.0988
     22 C         140.5337  138.4232  158.9032 C.3     1  UNL1        0.0066
     23 C         141.5060  138.4542  160.0450 C.3     1  UNL1        0.0475
     24 C         142.9664  138.2218  159.7930 C.3     1  UNL1        0.0066
@<TRIPOS>BOND
     1    22    23    1
     2    23    24    1
     3    23     1    1
     4     1     2    2
     5     2     3    1
     6     3     4    1
     7     3    10    1
     8    10    11   ar
     9    11    12   ar
    10    12    13   ar
    11    13    14   ar
    12    14    16    1
    13    16    17   ar
    14    17    18   ar
    15    18    19   ar
    16    19    20   ar
    17    20    21   ar
    18    14    15   ar
    19     3     5    1
    20     5     6    2
    21     6     7    1
    22     6     1    1
    23    15    10   ar
    24    21    16   ar
    25     7     8    1
    26     7     9    1
@<TRIPOS>MOLECULE
*****
 24 26 0 0 0
SMALL
GASTEIGER

@<TRIPOS>ATOM
      1 C         141.3525  142.5047  168.2378 C.2     1  UNL1        0.1388
      2 N         140.9294  142.3251  166.8100 N.2     1  UNL1       -0.2227
      3 C         142.1626  142.1013  165.9858 C.3     1  UNL1        0.2769
      4 C         141.1928  142.0092  164.8452 C.3     1  UNL1        0.0847
      5 N         143.3478  142.1426  166.9043 N.2     1  UNL1       -0.0450
      6 C         142.8472  142.3919  168.2962 C.2     1  UNL1        0.3285
      7 N         143.6926  142.5080  169.5296 N.pl3   1  UNL1       -0.2454
      8 H         144.6710  142.4189  169.4660 H       1  UNL1        0.2885
      9 H         143.2692  142.6733  170.4029 H       1  UNL1        0.2885
     10 C         143.1931  141.8583  164.9232 C.ar    1  UNL1        0.0437
     11 C         144.5374  142.5169  165.0175 C.ar    1  UNL1        0.0017
     12 C         145.5678  142.2738  163.9549 C.ar    1  UNL1       -0.0001
     13 C         145.2538  141.3722  162.7979 C.ar    1  UNL1        0.0000
     14 C         143.9095  140.7136  162.7036 C.ar    1  UNL1        0.0014
     15 C         142.8791  140.9567  163.7662 C.ar    1  UNL1        0.0017
     16 C         143.5955  139.8120  161.5467 C.ar    1  UNL1        0.0192
     17 C         143.6030  140.3555  160.1487 C.ar    1  UNL1        0.0031
     18 C         143.2890  139.4539  158.9917 C.ar    1  UNL1        0.0207
     19 C         142.9675  138.0088  159.2328 C.ar    1  UNL1        0.0989
     20 N         142.9600  137.4653  160.6308 N.ar    1  UNL1       -0.2423
     21 C         143.2740  138.3669  161.7877 C.ar    1  UNL1        0.0988
     22 C         139.6202  141.6312  169.9658 C.3     1  UNL1        0.0066
     23 C         140.4410  142.7534  169.4029 C.3     1  UNL1        0.0475
     24 C         140.3504  144.1242  170.0050 C.3     1  UNL1        0.0066
@<TRIPOS>BOND
     1    22    23    1
     2    23    24    1
     3    23     1    1
     4     1     2    2
     5     2     3    1
     6     3     4    1
     7     3    10    1
     8    10    11   ar
     9    11    12   ar
    10    12    13   ar
    11    13    14   ar
    12    14    16    1
    13    16    17   ar
    14    17    18   ar
    15    18    19   ar
    16    19    20   ar
    17    20    21   ar
    18    14    15   ar
    19     3     5    1
    20     5     6    2
    21     6     7    1
    22     6     1    1
    23    15    10   ar
    24    21    16   ar
    25     7     8    1
    26     7     9    1
@<TRIPOS>MOLECULE
*****
 24 26 0 0 0
SMALL
GASTEIGER

@<TRIPOS>ATOM
      1 C         140.2514  145.1435  158.8989 C.2     1  UNL1        0.1388
      2 N         140.2794  145.7526  160.2694 N.2     1  UNL1       -0.2227
      3 C         139.6526  144.7785  161.2224 C.3     1  UNL1        0.2769
      4 C         139.9500  145.8319  162.2480 C.3     1  UNL1        0.0847
      5 N         139.2371  143.5674  160.4410 N.2     1  UNL1       -0.0450
      6 C         139.6072  143.7930  159.0049 C.2     1  UNL1        0.3285
      7 N         139.3740  142.8362  157.8736 N.pl3   1  UNL1       -0.2454
      8 H         138.9412  141.9685  158.0440 H       1  UNL1        0.2885
      9 H         139.6538  143.0758  156.9606 H       1  UNL1        0.2885
     10 C         139.0879  144.0246  162.3899 C.ar    1  UNL1        0.0437
     11 C         138.4394  144.7679  163.5198 C.ar    1  UNL1        0.0017
     12 C         137.8747  144.0140  164.6872 C.ar    1  UNL1       -0.0001
     13 C         137.9586  142.5168  164.7246 C.ar    1  UNL1        0.0000
     14 C         138.6071  141.7735  163.5947 C.ar    1  UNL1        0.0014
     15 C         139.1718  142.5274  162.4273 C.ar    1  UNL1        0.0017
     16 C         138.6910  140.2763  163.6321 C.ar    1  UNL1        0.0192
     17 C         138.8114  139.4997  162.3544 C.ar    1  UNL1        0.0031
     18 C         138.8953  138.0026  162.3918 C.ar    1  UNL1        0.0207
     19 C         138.8588  137.2820  163.7069 C.ar    1  UNL1        0.0989
     20 N         138.7384  138.0585  164.9845 N.ar    1  UNL1       -0.2423
     21 C         138.6545  139.5557  164.9471 C.ar    1  UNL1        0.0988
     22 C         139.8529  146.5544  156.7541 C.3     1  UNL1        0.0066
     23 C         140.7755  145.7742  157.6429 C.3     1  UNL1        0.0475
     24 C         142.2222  145.6246  157.2758 C.3     1  UNL1        0.0066
@<TRIPOS>BOND
     1    22    23    1
     2    23    24    1
     3    23     1    1
     4     1     2    2
     5     2     3    1
     6     3     4    1
     7     3    10    1
     8    10    11   ar
     9    11    12   ar
    10    12    13   ar
    11    13    14   ar
    12    14    16    1
    13    16    17   ar
    14    17    18   ar
    15    18    19   ar
    16    19    20   ar
    17    20    21   ar
    18    14    15   ar
    19     3     5    1
    20     5     6    2
    21     6     7    1
    22     6     1    1
    23    15    10   ar
    24    21    16   ar
    25     7     8    1
    26     7     9    1
@<TRIPOS>MOLECULE
*****
 24 26 0 0 0
SMALL
GASTEIGER

@<TRIPOS>ATOM
      1 C         140.0397  140.4334  168.5204 C.2     1  UNL1        0.1388
      2 N         138.9774  139.6230  167.8388 N.2     1  UNL1       -0.2227
      3 C         139.4137  139.3835  166.4237 C.3     1  UNL1        0.2769
      4 C         138.1162  138.6385  166.3160 C.3     1  UNL1        0.0847
      5 N         140.7456  140.0458  166.2309 N.2     1  UNL1       -0.0450
      6 C         141.1326  140.6948  167.5268 C.2     1  UNL1        0.3285
      7 N         142.3913  141.4690  167.7837 N.pl3   1  UNL1       -0.2454
      8 H         143.0523  141.5869  167.0638 H       1  UNL1        0.2885
      9 H         142.5564  141.8593  168.6724 H       1  UNL1        0.2885
     10 C         139.5787  138.9882  164.9861 C.ar    1  UNL1        0.0437
     11 C         140.0770  137.6169  164.6378 C.ar    1  UNL1        0.0017
     12 C         140.2420  137.2217  163.2003 C.ar    1  UNL1       -0.0001
     13 C         139.9088  138.1977  162.1111 C.ar    1  UNL1        0.0000
     14 C         139.4106  139.5690  162.4594 C.ar    1  UNL1        0.0014
     15 C         139.2456  139.9642  163.8969 C.ar    1  UNL1        0.0017
     16 C         139.0774  140.5450  161.3702 C.ar    1  UNL1        0.0192
     17 C         139.0646  140.0961  159.9390 C.ar    1  UNL1        0.0031
     18 C         138.7314  141.0721  158.8498 C.ar    1  UNL1        0.0207
     19 C         138.4110  142.4970  159.1918 C.ar    1  UNL1        0.0989
     20 N         138.4238  142.9459  160.6230 N.ar    1  UNL1       -0.2423
     21 C         138.7570  141.9699  161.7122 C.ar    1  UNL1        0.0988
     22 C         139.7709  142.3478  170.2562 C.3     1  UNL1        0.0066
     23 C         140.0138  140.9006  169.9456 C.3     1  UNL1        0.0475
     24 C         140.2308  139.9204  171.0602 C.3     1  UNL1        0.0066
@<TRIPOS>BOND
     1    22    23    1
     2    23    24    1
     3    23     1    1
     4     1     2    2
     5     2     3    1
     6     3     4    1
     7     3    10    1
     8    10    11   ar
     9    11    12   ar
    10    12    13   ar
    11    13    14   ar
    12    14    16    1
    13    16    17   ar
    14    17    18   ar
    15    18    19   ar
    16    19    20   ar
    17    20    21   ar
    18    14    15   ar
    19     3     5    1
    20     5     6    2
    21     6     7    1
    22     6     1    1
    23    15    10   ar
    24    21    16   ar
    25     7     8    1
    26     7     9    1
