@<TRIPOS>MOLECULE
*****
 28 32 0 0 0
SMALL
GASTEIGER

@<TRIPOS>ATOM
      1 C         139.3451  140.1482  167.8096 C.ar    1  UNL1       -0.0207
      2 C         140.2469  141.1886  167.2146 C.ar    1  UNL1       -0.0027
      3 C         140.7053  141.0591  165.7923 C.ar    1  UNL1        0.0188
      4 C         140.2620  139.8890  164.9650 C.ar    1  UNL1        0.0812
      5 N         140.7205  139.7595  163.5427 N.ar    1  UNL1       -0.2454
      6 C         140.2771  138.5894  162.7154 C.ar    1  UNL1        0.0813
      7 C         139.3753  137.5489  163.3105 C.ar    1  UNL1        0.0191
      8 C         138.9168  137.6785  164.7328 C.ar    1  UNL1        0.0030
      9 C         139.3602  138.8485  165.5600 C.ar    1  UNL1        0.0174
     10 C         138.9017  138.9781  166.9823 C.ar    1  UNL1       -0.0027
     11 C         140.7356  138.4599  161.2931 C.ar    1  UNL1        0.0192
     12 C         142.1679  138.1298  160.9938 C.ar    1  UNL1        0.0031
     13 C         142.6264  138.0002  159.5715 C.ar    1  UNL1        0.0207
     14 C         141.6526  138.2007  158.4484 C.ar    1  UNL1        0.0989
     15 N         142.1110  138.0711  157.0261 N.ar    1  UNL1       -0.2407
     16 C         141.1372  138.2716  155.9030 C.ar    1  UNL1        0.1195
     17 C         139.7049  138.6016  156.2021 C.ar    1  UNL1        0.1195
     18 N         139.2464  138.7312  157.6244 N.ar    1  UNL1       -0.2407
     19 C         140.2203  138.5307  158.7476 C.ar    1  UNL1        0.0990
     20 C         139.7617  138.6603  160.1699 C.ar    1  UNL1        0.0221
     21 C         138.8866  140.2777  169.2320 C.3     1  UNL1        0.0437
     22 C         139.8828  140.2032  170.3509 C.3     1  UNL1        0.0768
     23 C         142.7918  138.9605  169.5493 C.3     1  UNL1        0.0173
     24 C         142.5091  140.3934  169.8908 C.3     1  UNL1        0.0576
     25 C         143.5138  141.5067  169.9237 C.3     1  UNL1        0.0174
     26 C         142.7976  142.7661  170.3125 C.3     1  UNL1        0.0187
     27 C         141.3502  142.4311  170.5199 C.3     1  UNL1        0.0721
     28 N         141.1720  140.9647  170.2592 N.3     1  UNL1       -0.2737
@<TRIPOS>BOND
     1    24    23    1
     2    24    25    1
     3    25    26    1
     4    26    27    1
     5    27    28    1
     6    28    22    1
     7    22    21    1
     8    21     1    1
     9     1     2   ar
    10     2     3   ar
    11     3     4   ar
    12     4     5   ar
    13     5     6   ar
    14     6    11    1
    15    11    12   ar
    16    12    13   ar
    17    13    14   ar
    18    14    15   ar
    19    15    16   ar
    20    16    17   ar
    21    17    18   ar
    22    18    19   ar
    23    19    20   ar
    24     6     7   ar
    25     7     8   ar
    26     8     9   ar
    27     9    10   ar
    28    28    24    1
    29    10     1   ar
    30     9     4   ar
    31    20    11   ar
    32    19    14   ar
@<TRIPOS>MOLECULE
*****
 28 32 0 0 0
SMALL
GASTEIGER

@<TRIPOS>ATOM
      1 C         142.0329  139.9463  167.3576 C.ar    1  UNL1       -0.0207
      2 C         140.6829  139.7506  166.7338 C.ar    1  UNL1       -0.0027
      3 C         140.3228  140.4884  165.4784 C.ar    1  UNL1        0.0188
      4 C         141.3127  141.4217  164.8468 C.ar    1  UNL1        0.0812
      5 N         140.9526  142.1594  163.5914 N.ar    1  UNL1       -0.2454
      6 C         141.9425  143.0928  162.9598 C.ar    1  UNL1        0.0813
      7 C         143.2926  143.2884  163.5836 C.ar    1  UNL1        0.0191
      8 C         143.6527  142.5507  164.8390 C.ar    1  UNL1        0.0030
      9 C         142.6627  141.6173  165.4706 C.ar    1  UNL1        0.0174
     10 C         143.0228  140.8796  166.7260 C.ar    1  UNL1       -0.0027
     11 C         141.5824  143.8305  161.7044 C.ar    1  UNL1        0.0192
     12 C         140.5084  144.8774  161.7315 C.ar    1  UNL1        0.0031
     13 C         140.1484  145.6151  160.4761 C.ar    1  UNL1        0.0207
     14 C         140.8622  145.3060  159.1935 C.ar    1  UNL1        0.0989
     15 N         140.5021  146.0437  157.9382 N.ar    1  UNL1       -0.2407
     16 C         141.2160  145.7346  156.6556 C.ar    1  UNL1        0.1195
     17 C         142.2899  144.6878  156.6285 C.ar    1  UNL1        0.1195
     18 N         142.6500  143.9501  157.8839 N.ar    1  UNL1       -0.2407
     19 C         141.9361  144.2592  159.1664 C.ar    1  UNL1        0.0990
     20 C         142.2963  143.5214  160.4218 C.ar    1  UNL1        0.0221
     21 C         142.3930  139.2085  168.6131 C.3     1  UNL1        0.0437
     22 C         142.0699  139.8035  169.9515 C.3     1  UNL1        0.0768
     23 C         143.8613  142.5296  169.8609 C.3     1  UNL1        0.0173
     24 C         142.3695  142.4593  170.0004 C.3     1  UNL1        0.0576
     25 C         141.4393  143.6296  170.1227 C.3     1  UNL1        0.0174
     26 C         140.0408  143.0998  170.2400 C.3     1  UNL1        0.0187
     27 C         140.1068  141.6020  170.1901 C.3     1  UNL1        0.0721
     28 N         141.5461  141.2062  170.0420 N.3     1  UNL1       -0.2737
@<TRIPOS>BOND
     1    24    23    1
     2    24    25    1
     3    25    26    1
     4    26    27    1
     5    27    28    1
     6    28    22    1
     7    22    21    1
     8    21     1    1
     9     1     2   ar
    10     2     3   ar
    11     3     4   ar
    12     4     5   ar
    13     5     6   ar
    14     6    11    1
    15    11    12   ar
    16    12    13   ar
    17    13    14   ar
    18    14    15   ar
    19    15    16   ar
    20    16    17   ar
    21    17    18   ar
    22    18    19   ar
    23    19    20   ar
    24     6     7   ar
    25     7     8   ar
    26     8     9   ar
    27     9    10   ar
    28    28    24    1
    29    10     1   ar
    30     9     4   ar
    31    20    11   ar
    32    19    14   ar
@<TRIPOS>MOLECULE
*****
 28 32 0 0 0
SMALL
GASTEIGER

@<TRIPOS>ATOM
      1 C         142.7235  138.4606  165.3105 C.ar    1  UNL1       -0.0207
      2 C         141.5580  137.5917  164.9409 C.ar    1  UNL1       -0.0027
      3 C         141.2475  137.3277  163.4974 C.ar    1  UNL1        0.0188
      4 C         142.1025  137.9324  162.4235 C.ar    1  UNL1        0.0812
      5 N         141.7919  137.6683  160.9799 N.ar    1  UNL1       -0.2454
      6 C         142.6469  138.2730  159.9060 C.ar    1  UNL1        0.0813
      7 C         143.8124  139.1419  160.2757 C.ar    1  UNL1        0.0191
      8 C         144.1229  139.4060  161.7192 C.ar    1  UNL1        0.0030
      9 C         143.2680  138.8012  162.7931 C.ar    1  UNL1        0.0174
     10 C         143.5785  139.0653  164.2366 C.ar    1  UNL1       -0.0027
     11 C         142.3364  138.0089  158.4625 C.ar    1  UNL1        0.0192
     12 C         141.5263  138.9971  157.6766 C.ar    1  UNL1        0.0031
     13 C         141.2158  138.7330  156.2330 C.ar    1  UNL1        0.0207
     14 C         141.7153  137.4808  155.5753 C.ar    1  UNL1        0.0989
     15 N         141.4048  137.2167  154.1318 N.ar    1  UNL1       -0.2407
     16 C         141.9042  135.9645  153.4741 C.ar    1  UNL1        0.1195
     17 C         142.7142  134.9764  154.2600 C.ar    1  UNL1        0.1195
     18 N         143.0247  135.2405  155.7035 N.ar    1  UNL1       -0.2407
     19 C         142.5253  136.4927  156.3612 C.ar    1  UNL1        0.0990
     20 C         142.8358  136.7567  157.8048 C.ar    1  UNL1        0.0221
     21 C         143.0341  138.7247  166.7541 C.3     1  UNL1        0.0437
     22 C         142.6355  140.0280  167.3807 C.3     1  UNL1        0.0768
     23 C         139.4679  140.2350  166.6241 C.3     1  UNL1        0.0173
     24 C         140.0411  140.1691  168.0086 C.3     1  UNL1        0.0576
     25 C         139.2590  140.1867  169.2885 C.3     1  UNL1        0.0174
     26 C         140.2317  140.1025  170.4273 C.3     1  UNL1        0.0187
     27 C         141.6149  140.0328  169.8512 C.3     1  UNL1        0.0721
     28 N         141.4971  140.0739  168.3564 N.3     1  UNL1       -0.2737
@<TRIPOS>BOND
     1    24    23    1
     2    24    25    1
     3    25    26    1
     4    26    27    1
     5    27    28    1
     6    28    22    1
     7    22    21    1
     8    21     1    1
     9     1     2   ar
    10     2     3   ar
    11     3     4   ar
    12     4     5   ar
    13     5     6   ar
    14     6    11    1
    15    11    12   ar
    16    12    13   ar
    17    13    14   ar
    18    14    15   ar
    19    15    16   ar
    20    16    17   ar
    21    17    18   ar
    22    18    19   ar
    23    19    20   ar
    24     6     7   ar
    25     7     8   ar
    26     8     9   ar
    27     9    10   ar
    28    28    24    1
    29    10     1   ar
    30     9     4   ar
    31    20    11   ar
    32    19    14   ar
@<TRIPOS>MOLECULE
*****
 28 32 0 0 0
SMALL
GASTEIGER

@<TRIPOS>ATOM
      1 C         141.1336  144.8680  159.7559 C.ar    1  UNL1       -0.0207
      2 C         142.0083  143.6615  159.9266 C.ar    1  UNL1       -0.0027
      3 C         141.9655  142.8790  161.2056 C.ar    1  UNL1        0.0188
      4 C         141.0480  143.3030  162.3139 C.ar    1  UNL1        0.0812
      5 N         141.0053  142.5204  163.5929 N.ar    1  UNL1       -0.2454
      6 C         140.0877  142.9445  164.7012 C.ar    1  UNL1        0.0813
      7 C         139.2130  144.1510  164.5305 C.ar    1  UNL1        0.0191
      8 C         139.2558  144.9335  163.2516 C.ar    1  UNL1        0.0030
      9 C         140.1733  144.5095  162.1432 C.ar    1  UNL1        0.0174
     10 C         140.2161  145.2920  160.8643 C.ar    1  UNL1       -0.0027
     11 C         140.0449  142.1620  165.9802 C.ar    1  UNL1        0.0192
     12 C         139.4682  140.7773  165.9934 C.ar    1  UNL1        0.0031
     13 C         139.4254  139.9948  167.2723 C.ar    1  UNL1        0.0207
     14 C         139.9593  140.5969  168.5382 C.ar    1  UNL1        0.0989
     15 N         139.9165  139.8144  169.8172 N.ar    1  UNL1       -0.2407
     16 C         140.4504  140.4165  171.0830 C.ar    1  UNL1        0.1195
     17 C         141.0271  141.8011  171.0699 C.ar    1  UNL1        0.1195
     18 N         141.0699  142.5836  169.7910 N.ar    1  UNL1       -0.2407
     19 C         140.5360  141.9815  168.5251 C.ar    1  UNL1        0.0990
     20 C         140.5789  142.7641  167.2461 C.ar    1  UNL1        0.0221
     21 C         141.1764  145.6506  158.4769 C.3     1  UNL1        0.0437
     22 C         140.1172  145.4436  157.4352 C.3     1  UNL1        0.0768
     23 C         141.7347  145.4222  154.6011 C.3     1  UNL1        0.0173
     24 C         140.7005  146.4252  155.0184 C.3     1  UNL1        0.0576
     25 C         140.2282  147.5946  154.2062 C.3     1  UNL1        0.0174
     26 C         139.1927  148.3272  155.0070 C.3     1  UNL1        0.0187
     27 C         139.0251  147.6105  156.3141 C.3     1  UNL1        0.0721
     28 N         139.9570  146.4351  156.3211 N.3     1  UNL1       -0.2737
@<TRIPOS>BOND
     1    24    23    1
     2    24    25    1
     3    25    26    1
     4    26    27    1
     5    27    28    1
     6    28    22    1
     7    22    21    1
     8    21     1    1
     9     1     2   ar
    10     2     3   ar
    11     3     4   ar
    12     4     5   ar
    13     5     6   ar
    14     6    11    1
    15    11    12   ar
    16    12    13   ar
    17    13    14   ar
    18    14    15   ar
    19    15    16   ar
    20    16    17   ar
    21    17    18   ar
    22    18    19   ar
    23    19    20   ar
    24     6     7   ar
    25     7     8   ar
    26     8     9   ar
    27     9    10   ar
    28    28    24    1
    29    10     1   ar
    30     9     4   ar
    31    20    11   ar
    32    19    14   ar
@<TRIPOS>MOLECULE
*****
 28 32 0 0 0
SMALL
GASTEIGER

@<TRIPOS>ATOM
      1 C         139.3068  137.6002  164.5451 C.ar    1  UNL1       -0.0207
      2 C         140.7959  137.4610  164.6594 C.ar    1  UNL1       -0.0027
      3 C         141.6612  137.6425  163.4477 C.ar    1  UNL1        0.0188
      4 C         141.0374  137.9633  162.1218 C.ar    1  UNL1        0.0812
      5 N         141.9029  138.1448  160.9101 N.ar    1  UNL1       -0.2454
      6 C         141.2791  138.4656  159.5842 C.ar    1  UNL1        0.0813
      7 C         139.7899  138.6048  159.4700 C.ar    1  UNL1        0.0191
      8 C         138.9245  138.4232  160.6817 C.ar    1  UNL1        0.0030
      9 C         139.5483  138.1025  162.0076 C.ar    1  UNL1        0.0174
     10 C         138.6830  137.9210  163.2192 C.ar    1  UNL1       -0.0027
     11 C         142.1444  138.6471  158.3725 C.ar    1  UNL1        0.0192
     12 C         142.0291  137.6951  157.2190 C.ar    1  UNL1        0.0031
     13 C         142.8945  137.8766  156.0074 C.ar    1  UNL1        0.0207
     14 C         143.8751  139.0101  155.9491 C.ar    1  UNL1        0.0989
     15 N         144.7405  139.1917  154.7374 N.ar    1  UNL1       -0.2407
     16 C         145.7211  140.3252  154.6791 C.ar    1  UNL1        0.1195
     17 C         145.8364  141.2772  155.8325 C.ar    1  UNL1        0.1195
     18 N         144.9711  141.0957  157.0442 N.ar    1  UNL1       -0.2407
     19 C         143.9904  139.9621  157.1025 C.ar    1  UNL1        0.0990
     20 C         143.1251  139.7806  158.3142 C.ar    1  UNL1        0.0221
     21 C         138.4413  137.4187  165.7568 C.3     1  UNL1        0.0437
     22 C         137.9922  138.6141  166.5436 C.3     1  UNL1        0.0768
     23 C         138.2284  141.1775  164.5380 C.3     1  UNL1        0.0173
     24 C         139.0199  140.9652  165.7943 C.3     1  UNL1        0.0576
     25 C         140.0589  141.8939  166.3493 C.3     1  UNL1        0.0174
     26 C         140.5925  141.2895  167.6143 C.3     1  UNL1        0.0187
     27 C         139.8832  139.9873  167.8410 C.3     1  UNL1        0.0721
     28 N         138.9113  139.7870  166.7162 N.3     1  UNL1       -0.2737
@<TRIPOS>BOND
     1    24    23    1
     2    24    25    1
     3    25    26    1
     4    26    27    1
     5    27    28    1
     6    28    22    1
     7    22    21    1
     8    21     1    1
     9     1     2   ar
    10     2     3   ar
    11     3     4   ar
    12     4     5   ar
    13     5     6   ar
    14     6    11    1
    15    11    12   ar
    16    12    13   ar
    17    13    14   ar
    18    14    15   ar
    19    15    16   ar
    20    16    17   ar
    21    17    18   ar
    22    18    19   ar
    23    19    20   ar
    24     6     7   ar
    25     7     8   ar
    26     8     9   ar
    27     9    10   ar
    28    28    24    1
    29    10     1   ar
    30     9     4   ar
    31    20    11   ar
    32    19    14   ar
@<TRIPOS>MOLECULE
*****
 28 32 0 0 0
SMALL
GASTEIGER

@<TRIPOS>ATOM
      1 C         143.2672  142.8776  165.4073 C.ar    1  UNL1       -0.0207
      2 C         144.4873  142.8977  164.5351 C.ar    1  UNL1       -0.0027
      3 C         144.3728  143.2989  163.0943 C.ar    1  UNL1        0.0188
      4 C         143.0380  143.6800  162.5258 C.ar    1  UNL1        0.0812
      5 N         142.9235  144.0812  161.0849 N.ar    1  UNL1       -0.2454
      6 C         141.5888  144.4623  160.5163 C.ar    1  UNL1        0.0813
      7 C         140.3686  144.4421  161.3886 C.ar    1  UNL1        0.0191
      8 C         140.4832  144.0409  162.8293 C.ar    1  UNL1        0.0030
      9 C         141.8179  143.6598  163.3979 C.ar    1  UNL1        0.0174
     10 C         141.9324  143.2586  164.8387 C.ar    1  UNL1       -0.0027
     11 C         141.4742  144.8635  159.0755 C.ar    1  UNL1        0.0192
     12 C         142.4372  144.3140  158.0651 C.ar    1  UNL1        0.0031
     13 C         142.3226  144.7152  156.6243 C.ar    1  UNL1        0.0207
     14 C         141.2452  145.6659  156.1939 C.ar    1  UNL1        0.0989
     15 N         141.1306  146.0671  154.7531 N.ar    1  UNL1       -0.2407
     16 C         140.0531  147.0177  154.3227 C.ar    1  UNL1        0.1195
     17 C         139.0902  147.5672  155.3330 C.ar    1  UNL1        0.1195
     18 N         139.2047  147.1660  156.7738 N.ar    1  UNL1       -0.2407
     19 C         140.2822  146.2153  157.2042 C.ar    1  UNL1        0.0990
     20 C         140.3967  145.8141  158.6451 C.ar    1  UNL1        0.0221
     21 C         143.3817  142.4763  166.8481 C.3     1  UNL1        0.0437
     22 C         142.6005  141.3047  167.3648 C.3     1  UNL1        0.0768
     23 C         142.2161  139.2363  169.8594 C.3     1  UNL1        0.0173
     24 C         141.4827  140.5304  169.6661 C.3     1  UNL1        0.0576
     25 C         140.4439  141.1009  170.5855 C.3     1  UNL1        0.0174
     26 C         139.9785  142.4044  170.0070 C.3     1  UNL1        0.0187
     27 C         140.7298  142.6393  168.7301 C.3     1  UNL1        0.0721
     28 N         141.6594  141.4811  168.5195 N.3     1  UNL1       -0.2737
@<TRIPOS>BOND
     1    24    23    1
     2    24    25    1
     3    25    26    1
     4    26    27    1
     5    27    28    1
     6    28    22    1
     7    22    21    1
     8    21     1    1
     9     1     2   ar
    10     2     3   ar
    11     3     4   ar
    12     4     5   ar
    13     5     6   ar
    14     6    11    1
    15    11    12   ar
    16    12    13   ar
    17    13    14   ar
    18    14    15   ar
    19    15    16   ar
    20    16    17   ar
    21    17    18   ar
    22    18    19   ar
    23    19    20   ar
    24     6     7   ar
    25     7     8   ar
    26     8     9   ar
    27     9    10   ar
    28    28    24    1
    29    10     1   ar
    30     9     4   ar
    31    20    11   ar
    32    19    14   ar
@<TRIPOS>MOLECULE
*****
 28 32 0 0 0
SMALL
GASTEIGER

@<TRIPOS>ATOM
      1 C         139.2303  139.1781  165.7737 C.ar    1  UNL1       -0.0207
      2 C         138.8194  137.8103  165.3153 C.ar    1  UNL1       -0.0027
      3 C         139.0864  137.3809  163.9031 C.ar    1  UNL1        0.0188
      4 C         139.7643  138.3194  162.9493 C.ar    1  UNL1        0.0812
      5 N         140.0313  137.8900  161.5370 N.ar    1  UNL1       -0.2454
      6 C         140.7091  138.8284  160.5832 C.ar    1  UNL1        0.0813
      7 C         141.1200  140.1964  161.0417 C.ar    1  UNL1        0.0191
      8 C         140.8530  140.6257  162.4538 C.ar    1  UNL1        0.0030
      9 C         140.1751  139.6872  163.4077 C.ar    1  UNL1        0.0174
     10 C         139.9081  140.1166  164.8198 C.ar    1  UNL1       -0.0027
     11 C         140.9761  138.3991  159.1710 C.ar    1  UNL1        0.0192
     12 C         142.3875  138.2170  158.6966 C.ar    1  UNL1        0.0031
     13 C         142.6545  137.7876  157.2844 C.ar    1  UNL1        0.0207
     14 C         141.5102  137.5403  156.3466 C.ar    1  UNL1        0.0989
     15 N         141.7772  137.1109  154.9344 N.ar    1  UNL1       -0.2407
     16 C         140.6329  136.8636  153.9966 C.ar    1  UNL1        0.1195
     17 C         139.2216  137.0456  154.4710 C.ar    1  UNL1        0.1195
     18 N         138.9546  137.4750  155.8832 N.ar    1  UNL1       -0.2407
     19 C         140.0989  137.7223  156.8210 C.ar    1  UNL1        0.0990
     20 C         139.8318  138.1517  158.2333 C.ar    1  UNL1        0.0221
     21 C         138.9633  139.6076  167.1859 C.3     1  UNL1        0.0437
     22 C         140.1076  139.9221  168.1032 C.3     1  UNL1        0.0768
     23 C         140.8973  142.8216  166.8311 C.3     1  UNL1        0.0173
     24 C         140.5042  142.5612  168.2550 C.3     1  UNL1        0.0576
     25 C         140.4051  143.5878  169.3442 C.3     1  UNL1        0.0174
     26 C         139.9809  142.8894  170.6022 C.3     1  UNL1        0.0187
     27 C         139.8178  141.4312  170.2904 C.3     1  UNL1        0.0721
     28 N         140.1413  141.2284  168.8398 N.3     1  UNL1       -0.2737
@<TRIPOS>BOND
     1    24    23    1
     2    24    25    1
     3    25    26    1
     4    26    27    1
     5    27    28    1
     6    28    22    1
     7    22    21    1
     8    21     1    1
     9     1     2   ar
    10     2     3   ar
    11     3     4   ar
    12     4     5   ar
    13     5     6   ar
    14     6    11    1
    15    11    12   ar
    16    12    13   ar
    17    13    14   ar
    18    14    15   ar
    19    15    16   ar
    20    16    17   ar
    21    17    18   ar
    22    18    19   ar
    23    19    20   ar
    24     6     7   ar
    25     7     8   ar
    26     8     9   ar
    27     9    10   ar
    28    28    24    1
    29    10     1   ar
    30     9     4   ar
    31    20    11   ar
    32    19    14   ar
@<TRIPOS>MOLECULE
*****
 28 32 0 0 0
SMALL
GASTEIGER

@<TRIPOS>ATOM
      1 C         142.9094  138.4743  165.2194 C.ar    1  UNL1       -0.0207
      2 C         141.6785  137.6550  164.9671 C.ar    1  UNL1       -0.0027
      3 C         141.2324  137.3853  163.5607 C.ar    1  UNL1        0.0188
      4 C         142.0171  137.9349  162.4065 C.ar    1  UNL1        0.0812
      5 N         141.5709  137.6651  160.9999 N.ar    1  UNL1       -0.2454
      6 C         142.3556  138.2147  159.8458 C.ar    1  UNL1        0.0813
      7 C         143.5865  139.0341  160.0981 C.ar    1  UNL1        0.0191
      8 C         144.0326  139.3039  161.5045 C.ar    1  UNL1        0.0030
      9 C         143.2479  138.7542  162.6587 C.ar    1  UNL1        0.0174
     10 C         143.6941  139.0240  164.0652 C.ar    1  UNL1       -0.0027
     11 C         141.9095  137.9450  158.4393 C.ar    1  UNL1        0.0192
     12 C         142.8531  137.3087  157.4621 C.ar    1  UNL1        0.0031
     13 C         142.4070  137.0390  156.0557 C.ar    1  UNL1        0.0207
     14 C         141.0173  137.4055  155.6263 C.ar    1  UNL1        0.0989
     15 N         140.5712  137.1358  154.2198 N.ar    1  UNL1       -0.2407
     16 C         139.1814  137.5023  153.7905 C.ar    1  UNL1        0.1195
     17 C         138.2379  138.1386  154.7676 C.ar    1  UNL1        0.1195
     18 N         138.6840  138.4083  156.1740 N.ar    1  UNL1       -0.2407
     19 C         140.0737  138.0418  156.6034 C.ar    1  UNL1        0.0990
     20 C         140.5198  138.3116  158.0099 C.ar    1  UNL1        0.0221
     21 C         143.3556  138.7441  166.6259 C.3     1  UNL1        0.0437
     22 C         142.6122  139.7352  167.4715 C.3     1  UNL1        0.0768
     23 C         139.3630  139.7710  167.1700 C.3     1  UNL1        0.0173
     24 C         140.3054  140.8314  166.6828 C.3     1  UNL1        0.0576
     25 C         139.9197  142.0945  165.9714 C.3     1  UNL1        0.0174
     26 C         141.1749  142.8587  165.6704 C.3     1  UNL1        0.0187
     27 C         142.3363  142.0679  166.1957 C.3     1  UNL1        0.0721
     28 N         141.7988  140.8150  166.8214 N.3     1  UNL1       -0.2737
@<TRIPOS>BOND
     1    24    23    1
     2    24    25    1
     3    25    26    1
     4    26    27    1
     5    27    28    1
     6    28    22    1
     7    22    21    1
     8    21     1    1
     9     1     2   ar
    10     2     3   ar
    11     3     4   ar
    12     4     5   ar
    13     5     6   ar
    14     6    11    1
    15    11    12   ar
    16    12    13   ar
    17    13    14   ar
    18    14    15   ar
    19    15    16   ar
    20    16    17   ar
    21    17    18   ar
    22    18    19   ar
    23    19    20   ar
    24     6     7   ar
    25     7     8   ar
    26     8     9   ar
    27     9    10   ar
    28    28    24    1
    29    10     1   ar
    30     9     4   ar
    31    20    11   ar
    32    19    14   ar
@<TRIPOS>MOLECULE
*****
 28 32 0 0 0
SMALL
GASTEIGER

@<TRIPOS>ATOM
      1 C         142.0977  138.0601  158.7227 C.ar    1  UNL1       -0.0207
      2 C         140.6519  138.3528  158.9946 C.ar    1  UNL1       -0.0027
      3 C         140.1974  138.6530  160.3922 C.ar    1  UNL1        0.0188
      4 C         141.1887  138.6605  161.5179 C.ar    1  UNL1        0.0812
      5 N         140.7342  138.9607  162.9155 N.ar    1  UNL1       -0.2454
      6 C         141.7255  138.9683  164.0412 C.ar    1  UNL1        0.0813
      7 C         143.1714  138.6756  163.7693 C.ar    1  UNL1        0.0191
      8 C         143.6259  138.3754  162.3717 C.ar    1  UNL1        0.0030
      9 C         142.6345  138.3679  161.2460 C.ar    1  UNL1        0.0174
     10 C         143.0890  138.0677  159.8484 C.ar    1  UNL1       -0.0027
     11 C         141.2710  139.2685  165.4388 C.ar    1  UNL1        0.0192
     12 C         139.8092  139.4313  165.7334 C.ar    1  UNL1        0.0031
     13 C         139.3548  139.7315  167.1310 C.ar    1  UNL1        0.0207
     14 C         140.3620  139.8688  168.2340 C.ar    1  UNL1        0.0989
     15 N         139.9075  140.1690  169.6316 N.ar    1  UNL1       -0.2407
     16 C         140.9148  140.3064  170.7346 C.ar    1  UNL1        0.1195
     17 C         142.3765  140.1436  170.4400 C.ar    1  UNL1        0.1195
     18 N         142.8310  139.8434  169.0424 N.ar    1  UNL1       -0.2407
     19 C         141.8237  139.7060  167.9394 C.ar    1  UNL1        0.0990
     20 C         142.2783  139.4058  166.5418 C.ar    1  UNL1        0.0221
     21 C         142.5522  137.7599  157.3250 C.3     1  UNL1        0.0437
     22 C         141.9605  136.6027  156.5762 C.3     1  UNL1        0.0768
     23 C         142.3205  134.7537  153.9115 C.3     1  UNL1        0.0173
     24 C         142.8673  134.4510  155.2750 C.3     1  UNL1        0.0576
     25 C         143.6755  133.2453  155.6532 C.3     1  UNL1        0.0174
     26 C         144.0095  133.3500  157.1118 C.3     1  UNL1        0.0187
     27 C         143.4077  134.6205  157.6351 C.3     1  UNL1        0.0721
     28 N         142.7018  135.3009  156.4999 N.3     1  UNL1       -0.2737
@<TRIPOS>BOND
     1    24    23    1
     2    24    25    1
     3    25    26    1
     4    26    27    1
     5    27    28    1
     6    28    22    1
     7    22    21    1
     8    21     1    1
     9     1     2   ar
    10     2     3   ar
    11     3     4   ar
    12     4     5   ar
    13     5     6   ar
    14     6    11    1
    15    11    12   ar
    16    12    13   ar
    17    13    14   ar
    18    14    15   ar
    19    15    16   ar
    20    16    17   ar
    21    17    18   ar
    22    18    19   ar
    23    19    20   ar
    24     6     7   ar
    25     7     8   ar
    26     8     9   ar
    27     9    10   ar
    28    28    24    1
    29    10     1   ar
    30     9     4   ar
    31    20    11   ar
    32    19    14   ar
