@<TRIPOS>MOLECULE
*****
 32 35 0 0 0
SMALL
GASTEIGER

@<TRIPOS>ATOM
      1 C         142.0243  143.0936  163.0358 C.ar    1  UNL1       -0.0002
      2 C         143.3133  143.8439  162.8761 C.ar    1  UNL1        0.0013
      3 C         144.2510  143.4945  161.7586 C.ar    1  UNL1        0.0147
      4 C         143.8997  142.3947  160.8009 C.ar    1  UNL1        0.0505
      5 C         142.6107  141.6444  160.9608 C.ar    1  UNL1        0.0147
      6 C         141.6730  141.9938  162.0782 C.ar    1  UNL1        0.0013
      7 C         142.4045  141.8734  165.7500 C.3     1  UNL1        0.0312
      8 C         141.2767  142.8330  165.5103 C.ar    1  UNL1       -0.0173
      9 C         141.0866  143.4430  164.1533 C.ar    1  UNL1       -0.0038
     10 C         139.9588  144.4026  163.9136 C.ar    1  UNL1       -0.0003
     11 C         139.0211  144.7520  165.0310 C.ar    1  UNL1        0.0001
     12 C         139.2112  144.1419  166.3880 C.ar    1  UNL1        0.0044
     13 C         140.3390  143.1824  166.6277 C.ar    1  UNL1        0.0512
     14 C         140.5290  142.5723  167.9848 C.ar    1  UNL1        0.2508
     15 N         140.0080  141.2390  168.4329 N.ar    1  UNL1       -0.1261
     16 N         140.4305  141.0311  169.8571 N.ar    1  UNL1       -0.1807
     17 C         140.1245  139.8294  170.7011 C.3     1  UNL1        0.1605
     18 C         141.2126  142.2360  170.2893 C.ar    1  UNL1        0.4391
     19 O         141.8260  142.4507  171.6411 O.2     1  UNL1       -0.2210
     20 O         141.2735  143.1885  169.1321 O.2     1  UNL1       -0.3878
     21 N         144.8374  142.0453  159.6835 N.am    1  UNL1       -0.2803
     22 C         144.6190  142.6179  158.3145 C.2     1  UNL1        0.2539
     23 O         143.4629  143.5400  158.0629 O.2     1  UNL1       -0.2697
     24 H         145.5961  141.4401  159.8487 H       1  UNL1        0.1552
     25 C         145.5566  142.2685  157.1970 C.ar    1  UNL1        0.1084
     26 C         146.9960  142.6847  157.2678 C.ar    1  UNL1        0.1467
     27 F         147.4977  143.4502  158.4562 F       1  UNL1       -0.2039
     28 C         147.9335  142.3352  156.1504 C.ar    1  UNL1        0.0299
     29 C         147.4318  141.5696  154.9620 C.ar    1  UNL1        0.0046
     30 C         145.9924  141.1535  154.8912 C.ar    1  UNL1        0.0299
     31 C         145.0549  141.5029  156.0086 C.ar    1  UNL1        0.1467
     32 F         143.6154  141.0868  155.9378 F       1  UNL1       -0.2039
@<TRIPOS>BOND
     1     7     8    1
     2     8     9   ar
     3     9     1    1
     4     1     2   ar
     5     2     3   ar
     6     3     4   ar
     7     4    21    1
     8    21    22   am
     9    22    23    2
    10    22    25    1
    11    25    26   ar
    12    26    27    1
    13    26    28   ar
    14    28    29   ar
    15    29    30   ar
    16    30    31   ar
    17    31    32    1
    18     4     5   ar
    19     5     6   ar
    20     9    10   ar
    21    10    11   ar
    22    11    12   ar
    23    12    13   ar
    24    13    14    1
    25    14    15   ar
    26    15    16   ar
    27    16    17    1
    28    16    18   ar
    29    18    19    2
    30    18    20   ar
    31    13     8   ar
    32    20    14   ar
    33     6     1   ar
    34    31    25   ar
    35    21    24    1
@<TRIPOS>MOLECULE
*****
 32 35 0 0 0
SMALL
GASTEIGER

@<TRIPOS>ATOM
      1 C         141.9378  143.0780  163.0201 C.ar    1  UNL1       -0.0002
      2 C         141.5432  141.9956  162.0596 C.ar    1  UNL1        0.0013
      3 C         142.4592  141.6231  160.9317 C.ar    1  UNL1        0.0147
      4 C         143.7699  142.3330  160.7643 C.ar    1  UNL1        0.0505
      5 C         144.1646  143.4155  161.7248 C.ar    1  UNL1        0.0147
      6 C         143.2485  143.7880  162.8527 C.ar    1  UNL1        0.0013
      7 C         142.3185  141.8488  165.7301 C.3     1  UNL1        0.0312
      8 C         141.2121  142.8359  165.5030 C.ar    1  UNL1       -0.0173
      9 C         141.0218  143.4505  164.1480 C.ar    1  UNL1       -0.0038
     10 C         139.9154  144.4375  163.9209 C.ar    1  UNL1       -0.0003
     11 C         138.9994  144.8100  165.0487 C.ar    1  UNL1        0.0001
     12 C         139.1897  144.1955  166.4037 C.ar    1  UNL1        0.0044
     13 C         140.2961  143.2084  166.6308 C.ar    1  UNL1        0.0512
     14 C         140.4864  142.5938  167.9859 C.ar    1  UNL1        0.2508
     15 N         139.9683  141.2576  168.4287 N.ar    1  UNL1       -0.1261
     16 N         140.3900  141.0456  169.8525 N.ar    1  UNL1       -0.1807
     17 C         140.0862  139.8400  170.6918 C.3     1  UNL1        0.1605
     18 C         141.1688  142.2507  170.2897 C.ar    1  UNL1        0.4391
     19 O         141.7805  142.4619  171.6429 O.2     1  UNL1       -0.2210
     20 O         141.2284  143.2076  169.1361 O.2     1  UNL1       -0.3878
     21 N         144.6860  141.9606  159.6364 N.am    1  UNL1       -0.2803
     22 C         144.5361  142.6225  158.2988 C.2     1  UNL1        0.2539
     23 O         143.4703  143.6569  158.0890 O.2     1  UNL1       -0.2697
     24 H         145.3855  141.2817  159.7741 H       1  UNL1        0.1552
     25 C         145.4522  142.2501  157.1708 C.ar    1  UNL1        0.1084
     26 C         144.9298  141.4536  156.0121 C.ar    1  UNL1        0.1467
     27 F         143.4913  141.0296  155.9813 F       1  UNL1       -0.2039
     28 C         145.8458  141.0813  154.8842 C.ar    1  UNL1        0.0299
     29 C         147.2843  141.5054  154.9151 C.ar    1  UNL1        0.0046
     30 C         147.8067  142.3018  156.0738 C.ar    1  UNL1        0.0299
     31 C         146.8907  142.6742  157.2017 C.ar    1  UNL1        0.1467
     32 F         147.4131  143.4707  158.3605 F       1  UNL1       -0.2039
@<TRIPOS>BOND
     1     7     8    1
     2     8     9   ar
     3     9     1    1
     4     1     2   ar
     5     2     3   ar
     6     3     4   ar
     7     4    21    1
     8    21    22   am
     9    22    23    2
    10    22    25    1
    11    25    26   ar
    12    26    27    1
    13    26    28   ar
    14    28    29   ar
    15    29    30   ar
    16    30    31   ar
    17    31    32    1
    18     4     5   ar
    19     5     6   ar
    20     9    10   ar
    21    10    11   ar
    22    11    12   ar
    23    12    13   ar
    24    13    14    1
    25    14    15   ar
    26    15    16   ar
    27    16    17    1
    28    16    18   ar
    29    18    19    2
    30    18    20   ar
    31    13     8   ar
    32    20    14   ar
    33     6     1   ar
    34    31    25   ar
    35    21    24    1
@<TRIPOS>MOLECULE
*****
 32 35 0 0 0
SMALL
GASTEIGER

@<TRIPOS>ATOM
      1 C         139.0551  141.4423  163.4883 C.ar    1  UNL1       -0.0002
      2 C         137.9302  142.3398  163.0649 C.ar    1  UNL1        0.0013
      3 C         137.9961  143.0544  161.7477 C.ar    1  UNL1        0.0147
      4 C         139.1868  142.8716  160.8539 C.ar    1  UNL1        0.0505
      5 C         140.3117  141.9742  161.2774 C.ar    1  UNL1        0.0147
      6 C         140.2458  141.2595  162.5946 C.ar    1  UNL1        0.0013
      7 C         140.3408  142.6489  165.9155 C.3     1  UNL1        0.0312
      8 C         139.6320  141.3309  166.0191 C.ar    1  UNL1       -0.0173
      9 C         138.9892  140.7277  164.8055 C.ar    1  UNL1       -0.0038
     10 C         138.2805  139.4097  164.9091 C.ar    1  UNL1       -0.0003
     11 C         138.2146  138.6950  166.2262 C.ar    1  UNL1        0.0001
     12 C         138.8574  139.2983  167.4398 C.ar    1  UNL1        0.0044
     13 C         139.5661  140.6162  167.3362 C.ar    1  UNL1        0.0512
     14 C         140.2090  141.2195  168.5499 C.ar    1  UNL1        0.2508
     15 N         141.5751  141.8361  168.6095 N.ar    1  UNL1       -0.1261
     16 N         141.8090  142.3097  170.0134 N.ar    1  UNL1       -0.1807
     17 C         143.0471  142.9881  170.5203 C.3     1  UNL1        0.1605
     18 C         140.5874  141.9859  170.8215 C.ar    1  UNL1        0.4391
     19 O         140.3894  142.2835  172.2782 O.2     1  UNL1       -0.2210
     20 O         139.5986  141.3121  169.9169 O.2     1  UNL1       -0.3878
     21 N         139.2527  143.5863  159.5368 N.am    1  UNL1       -0.2803
     22 C         139.0374  142.8281  158.2606 C.2     1  UNL1        0.2539
     23 O         138.7562  141.3552  158.3016 O.2     1  UNL1       -0.2697
     24 H         139.4373  144.5529  159.5099 H       1  UNL1        0.1552
     25 C         139.1033  143.5427  156.9434 C.ar    1  UNL1        0.1084
     26 C         140.3527  144.2722  156.5476 C.ar    1  UNL1        0.1467
     27 F         141.5363  144.2871  157.4689 F       1  UNL1       -0.2039
     28 C         140.4186  144.9867  155.2304 C.ar    1  UNL1        0.0299
     29 C         139.2350  144.9718  154.3090 C.ar    1  UNL1        0.0046
     30 C         137.9856  144.2423  154.7048 C.ar    1  UNL1        0.0299
     31 C         137.9197  143.5277  156.0220 C.ar    1  UNL1        0.1467
     32 F         136.6703  142.7982  156.4179 F       1  UNL1       -0.2039
@<TRIPOS>BOND
     1     7     8    1
     2     8     9   ar
     3     9     1    1
     4     1     2   ar
     5     2     3   ar
     6     3     4   ar
     7     4    21    1
     8    21    22   am
     9    22    23    2
    10    22    25    1
    11    25    26   ar
    12    26    27    1
    13    26    28   ar
    14    28    29   ar
    15    29    30   ar
    16    30    31   ar
    17    31    32    1
    18     4     5   ar
    19     5     6   ar
    20     9    10   ar
    21    10    11   ar
    22    11    12   ar
    23    12    13   ar
    24    13    14    1
    25    14    15   ar
    26    15    16   ar
    27    16    17    1
    28    16    18   ar
    29    18    19    2
    30    18    20   ar
    31    13     8   ar
    32    20    14   ar
    33     6     1   ar
    34    31    25   ar
    35    21    24    1
@<TRIPOS>MOLECULE
*****
 32 35 0 0 0
SMALL
GASTEIGER

@<TRIPOS>ATOM
      1 C         143.5175  140.8937  163.0830 C.ar    1  UNL1       -0.0002
      2 C         142.3935  140.8526  162.0906 C.ar    1  UNL1        0.0013
      3 C         142.5734  141.4538  160.7282 C.ar    1  UNL1        0.0147
      4 C         143.8774  142.0962  160.3581 C.ar    1  UNL1        0.0505
      5 C         145.0015  142.1372  161.3506 C.ar    1  UNL1        0.0147
      6 C         144.8215  141.5360  162.7129 C.ar    1  UNL1        0.0013
      7 C         142.7306  142.6322  165.3978 C.3     1  UNL1        0.0312
      8 C         142.9441  141.1617  165.6028 C.ar    1  UNL1       -0.0173
      9 C         143.3375  140.2925  164.4454 C.ar    1  UNL1       -0.0038
     10 C         143.5511  138.8220  164.6504 C.ar    1  UNL1       -0.0003
     11 C         143.3711  138.2207  166.0128 C.ar    1  UNL1        0.0001
     12 C         142.9777  139.0900  167.1701 C.ar    1  UNL1        0.0044
     13 C         142.7642  140.5605  166.9651 C.ar    1  UNL1        0.0512
     14 C         142.3707  141.4297  168.1226 C.ar    1  UNL1        0.2508
     15 N         140.9817  141.6061  168.6607 N.ar    1  UNL1       -0.1261
     16 N         141.0498  142.5606  169.8158 N.ar    1  UNL1       -0.1807
     17 C         139.8903  143.0207  170.6488 C.3     1  UNL1        0.1605
     18 C         142.4809  142.9742  169.9916 C.ar    1  UNL1        0.4391
     19 O         143.0038  143.9205  171.0313 O.2     1  UNL1       -0.2210
     20 O         143.2973  142.2753  168.9452 O.2     1  UNL1       -0.3878
     21 N         144.0574  142.6974  158.9958 N.am    1  UNL1       -0.2803
     22 C         144.4175  141.8227  157.8316 C.2     1  UNL1        0.2539
     23 O         144.5975  140.3468  158.0299 O.2     1  UNL1       -0.2697
     24 H         143.9393  143.6661  158.8657 H       1  UNL1        0.1552
     25 C         144.5975  142.4239  156.4692 C.ar    1  UNL1        0.1084
     26 C         143.4284  143.0431  155.7622 C.ar    1  UNL1        0.1467
     27 F         142.0793  143.0611  156.4176 F       1  UNL1       -0.2039
     28 C         143.6084  143.6442  154.3998 C.ar    1  UNL1        0.0299
     29 C         144.9576  143.6262  153.7444 C.ar    1  UNL1        0.0046
     30 C         146.1266  143.0070  154.4514 C.ar    1  UNL1        0.0299
     31 C         145.9466  142.4059  155.8137 C.ar    1  UNL1        0.1467
     32 F         147.1157  141.7866  156.5208 F       1  UNL1       -0.2039
@<TRIPOS>BOND
     1     7     8    1
     2     8     9   ar
     3     9     1    1
     4     1     2   ar
     5     2     3   ar
     6     3     4   ar
     7     4    21    1
     8    21    22   am
     9    22    23    2
    10    22    25    1
    11    25    26   ar
    12    26    27    1
    13    26    28   ar
    14    28    29   ar
    15    29    30   ar
    16    30    31   ar
    17    31    32    1
    18     4     5   ar
    19     5     6   ar
    20     9    10   ar
    21    10    11   ar
    22    11    12   ar
    23    12    13   ar
    24    13    14    1
    25    14    15   ar
    26    15    16   ar
    27    16    17    1
    28    16    18   ar
    29    18    19    2
    30    18    20   ar
    31    13     8   ar
    32    20    14   ar
    33     6     1   ar
    34    31    25   ar
    35    21    24    1
@<TRIPOS>MOLECULE
*****
 32 35 0 0 0
SMALL
GASTEIGER

@<TRIPOS>ATOM
      1 C         138.8052  141.4041  163.6940 C.ar    1  UNL1       -0.0002
      2 C         139.5102  140.7621  162.5362 C.ar    1  UNL1        0.0013
      3 C         139.4712  141.4078  161.1828 C.ar    1  UNL1        0.0147
      4 C         138.7273  142.6956  160.9874 C.ar    1  UNL1        0.0505
      5 C         138.0223  143.3377  162.1453 C.ar    1  UNL1        0.0147
      6 C         138.0613  142.6919  163.4986 C.ar    1  UNL1        0.0013
      7 C         140.6487  142.4648  165.8098 C.3     1  UNL1        0.0312
      8 C         139.7658  141.2887  166.1052 C.ar    1  UNL1       -0.0173
      9 C         138.8441  140.7584  165.0474 C.ar    1  UNL1       -0.0038
     10 C         137.9612  139.5823  165.3429 C.ar    1  UNL1       -0.0003
     11 C         138.0001  138.9365  166.6962 C.ar    1  UNL1        0.0001
     12 C         138.9218  139.4669  167.7540 C.ar    1  UNL1        0.0044
     13 C         139.8047  140.6430  167.4585 C.ar    1  UNL1        0.0512
     14 C         140.7265  141.1733  168.5165 C.ar    1  UNL1        0.2508
     15 N         142.1678  141.5426  168.3257 N.ar    1  UNL1       -0.1261
     16 N         142.7008  142.0249  169.6422 N.ar    1  UNL1       -0.1807
     17 C         144.1001  142.4958  169.9077 C.3     1  UNL1        0.1605
     18 C         141.5890  141.9538  170.6466 C.ar    1  UNL1        0.4391
     19 O         141.6812  142.3411  172.0928 O.2     1  UNL1       -0.2210
     20 O         140.3688  141.4275  169.9508 O.2     1  UNL1       -0.3878
     21 N         138.6884  143.3414  159.6341 N.am    1  UNL1       -0.2803
     22 C         139.9671  143.7087  158.9413 C.2     1  UNL1        0.2539
     23 O         141.2847  143.4303  159.6019 O.2     1  UNL1       -0.2697
     24 H         137.8236  143.5241  159.2005 H       1  UNL1        0.1552
     25 C         139.9282  144.3545  157.5880 C.ar    1  UNL1        0.1084
     26 C         139.1031  143.7489  156.4914 C.ar    1  UNL1        0.1467
     27 F         138.3169  142.4975  156.7481 F       1  UNL1       -0.2039
     28 C         139.0643  144.3947  155.1381 C.ar    1  UNL1        0.0299
     29 C         139.8505  145.6461  154.8814 C.ar    1  UNL1        0.0046
     30 C         140.6756  146.2517  155.9780 C.ar    1  UNL1        0.0299
     31 C         140.7144  145.6059  157.3312 C.ar    1  UNL1        0.1467
     32 F         141.5395  146.2114  158.4279 F       1  UNL1       -0.2039
@<TRIPOS>BOND
     1     7     8    1
     2     8     9   ar
     3     9     1    1
     4     1     2   ar
     5     2     3   ar
     6     3     4   ar
     7     4    21    1
     8    21    22   am
     9    22    23    2
    10    22    25    1
    11    25    26   ar
    12    26    27    1
    13    26    28   ar
    14    28    29   ar
    15    29    30   ar
    16    30    31   ar
    17    31    32    1
    18     4     5   ar
    19     5     6   ar
    20     9    10   ar
    21    10    11   ar
    22    11    12   ar
    23    12    13   ar
    24    13    14    1
    25    14    15   ar
    26    15    16   ar
    27    16    17    1
    28    16    18   ar
    29    18    19    2
    30    18    20   ar
    31    13     8   ar
    32    20    14   ar
    33     6     1   ar
    34    31    25   ar
    35    21    24    1
@<TRIPOS>MOLECULE
*****
 32 35 0 0 0
SMALL
GASTEIGER

@<TRIPOS>ATOM
      1 C         142.2083  141.0992  162.9652 C.ar    1  UNL1       -0.0002
      2 C         142.8699  142.4149  162.6805 C.ar    1  UNL1        0.0013
      3 C         142.6664  143.0853  161.3541 C.ar    1  UNL1        0.0147
      4 C         141.8012  142.4399  160.3125 C.ar    1  UNL1        0.0505
      5 C         141.1396  141.1241  160.5973 C.ar    1  UNL1        0.0147
      6 C         141.3432  140.4538  161.9236 C.ar    1  UNL1        0.0013
      7 C         140.4719  141.8329  165.2990 C.3     1  UNL1        0.0312
      8 C         141.5437  140.7956  165.4584 C.ar    1  UNL1       -0.0173
      9 C         142.4119  140.4288  164.2916 C.ar    1  UNL1       -0.0038
     10 C         143.4836  139.3915  164.4510 C.ar    1  UNL1       -0.0003
     11 C         143.6872  138.7211  165.7773 C.ar    1  UNL1        0.0001
     12 C         142.8190  139.0879  166.9441 C.ar    1  UNL1        0.0044
     13 C         141.7473  140.1252  166.7847 C.ar    1  UNL1        0.0512
     14 C         140.8791  140.4921  167.9517 C.ar    1  UNL1        0.2508
     15 N         140.9658  141.7580  168.7516 N.ar    1  UNL1       -0.1261
     16 N         139.9121  141.7057  169.8179 N.ar    1  UNL1       -0.1807
     17 C         139.6435  142.7656  170.8448 C.3     1  UNL1        0.1605
     18 C         139.1740  140.4074  169.6769 C.ar    1  UNL1        0.4391
     19 O         138.0379  139.9410  170.5381 O.2     1  UNL1       -0.2210
     20 O         139.7717  139.6574  168.5236 O.2     1  UNL1       -0.3878
     21 N         141.5976  143.1103  158.9862 N.am    1  UNL1       -0.2803
     22 C         140.3622  143.9242  158.7391 C.2     1  UNL1        0.2539
     23 O         139.3304  144.0679  159.8183 O.2     1  UNL1       -0.2697
     24 H         142.2749  143.0160  158.2779 H       1  UNL1        0.1552
     25 C         140.1586  144.5946  157.4127 C.ar    1  UNL1        0.1084
     26 C         139.0712  144.1234  156.4932 C.ar    1  UNL1        0.1467
     27 F         138.1874  142.9817  156.9001 F       1  UNL1       -0.2039
     28 C         138.8676  144.7937  155.1669 C.ar    1  UNL1        0.0299
     29 C         139.7514  145.9354  154.7601 C.ar    1  UNL1        0.0046
     30 C         140.8388  146.4067  155.6796 C.ar    1  UNL1        0.0299
     31 C         141.0424  145.7363  157.0059 C.ar    1  UNL1        0.1467
     32 F         142.1298  146.2076  157.9254 F       1  UNL1       -0.2039
@<TRIPOS>BOND
     1     7     8    1
     2     8     9   ar
     3     9     1    1
     4     1     2   ar
     5     2     3   ar
     6     3     4   ar
     7     4    21    1
     8    21    22   am
     9    22    23    2
    10    22    25    1
    11    25    26   ar
    12    26    27    1
    13    26    28   ar
    14    28    29   ar
    15    29    30   ar
    16    30    31   ar
    17    31    32    1
    18     4     5   ar
    19     5     6   ar
    20     9    10   ar
    21    10    11   ar
    22    11    12   ar
    23    12    13   ar
    24    13    14    1
    25    14    15   ar
    26    15    16   ar
    27    16    17    1
    28    16    18   ar
    29    18    19    2
    30    18    20   ar
    31    13     8   ar
    32    20    14   ar
    33     6     1   ar
    34    31    25   ar
    35    21    24    1
@<TRIPOS>MOLECULE
*****
 32 35 0 0 0
SMALL
GASTEIGER

@<TRIPOS>ATOM
      1 C         143.1065  140.0876  162.4908 C.ar    1  UNL1       -0.0002
      2 C         143.9418  138.8591  162.2837 C.ar    1  UNL1        0.0013
      3 C         143.6963  137.9767  161.0957 C.ar    1  UNL1        0.0147
      4 C         142.6154  138.3229  160.1150 C.ar    1  UNL1        0.0505
      5 C         141.7801  139.5514  160.3222 C.ar    1  UNL1        0.0147
      6 C         142.0256  140.4337  161.5101 C.ar    1  UNL1        0.0013
      7 C         141.5493  139.6658  165.0201 C.3     1  UNL1        0.0312
      8 C         142.5734  140.7591  164.9434 C.ar    1  UNL1       -0.0173
      9 C         143.3520  140.9700  163.6788 C.ar    1  UNL1       -0.0038
     10 C         144.3761  142.0633  163.6021 C.ar    1  UNL1       -0.0003
     11 C         144.6216  142.9456  164.7899 C.ar    1  UNL1        0.0001
     12 C         143.8430  142.7347  166.0545 C.ar    1  UNL1        0.0044
     13 C         142.8189  141.6414  166.1313 C.ar    1  UNL1        0.0512
     14 C         142.0403  141.4305  167.3960 C.ar    1  UNL1        0.2508
     15 N         141.2751  142.4804  168.1457 N.ar    1  UNL1       -0.1261
     16 N         140.6521  141.8315  169.3460 N.ar    1  UNL1       -0.1807
     17 C         139.7987  142.5137  170.3738 C.3     1  UNL1        0.1605
     18 C         141.0323  140.3804  169.3381 C.ar    1  UNL1        0.4391
     19 O         140.6259  139.3570  170.3566 O.2     1  UNL1       -0.2210
     20 O         141.8903  140.1327  168.1329 O.2     1  UNL1       -0.3878
     21 N         142.3699  137.4405  158.9271 N.am    1  UNL1       -0.2803
     22 C         142.9856  137.7786  157.6017 C.2     1  UNL1        0.2539
     23 O         143.8468  138.9990  157.4643 O.2     1  UNL1       -0.2697
     24 H         141.8047  136.6395  159.0173 H       1  UNL1        0.1552
     25 C         142.7401  136.8963  156.4137 C.ar    1  UNL1        0.1084
     26 C         142.2664  137.4928  155.1216 C.ar    1  UNL1        0.1467
     27 F         142.0382  138.9717  155.0173 F       1  UNL1       -0.2039
     28 C         142.0209  136.6105  153.9336 C.ar    1  UNL1        0.0299
     29 C         142.2491  135.1316  154.0379 C.ar    1  UNL1        0.0046
     30 C         142.7228  134.5351  155.3300 C.ar    1  UNL1        0.0299
     31 C         142.9683  135.4174  156.5180 C.ar    1  UNL1        0.1467
     32 F         143.4420  134.8209  157.8102 F       1  UNL1       -0.2039
@<TRIPOS>BOND
     1     7     8    1
     2     8     9   ar
     3     9     1    1
     4     1     2   ar
     5     2     3   ar
     6     3     4   ar
     7     4    21    1
     8    21    22   am
     9    22    23    2
    10    22    25    1
    11    25    26   ar
    12    26    27    1
    13    26    28   ar
    14    28    29   ar
    15    29    30   ar
    16    30    31   ar
    17    31    32    1
    18     4     5   ar
    19     5     6   ar
    20     9    10   ar
    21    10    11   ar
    22    11    12   ar
    23    12    13   ar
    24    13    14    1
    25    14    15   ar
    26    15    16   ar
    27    16    17    1
    28    16    18   ar
    29    18    19    2
    30    18    20   ar
    31    13     8   ar
    32    20    14   ar
    33     6     1   ar
    34    31    25   ar
    35    21    24    1
@<TRIPOS>MOLECULE
*****
 32 35 0 0 0
SMALL
GASTEIGER

@<TRIPOS>ATOM
      1 C         140.7627  139.9647  162.4979 C.ar    1  UNL1       -0.0002
      2 C         141.3960  141.0155  161.6349 C.ar    1  UNL1        0.0013
      3 C         140.8139  141.3316  160.2890 C.ar    1  UNL1        0.0147
      4 C         139.5986  140.5970  159.8062 C.ar    1  UNL1        0.0505
      5 C         138.9652  139.5462  160.6692 C.ar    1  UNL1        0.0147
      6 C         139.5473  139.2301  162.0150 C.ar    1  UNL1        0.0013
      7 C         139.3704  140.8895  164.9891 C.3     1  UNL1        0.0312
      8 C         140.6486  140.1110  165.0894 C.ar    1  UNL1       -0.0173
      9 C         141.3447  139.6486  163.8438 C.ar    1  UNL1       -0.0038
     10 C         142.6229  138.8700  163.9440 C.ar    1  UNL1       -0.0003
     11 C         143.2050  138.5538  165.2898 C.ar    1  UNL1        0.0001
     12 C         142.5088  139.0162  166.5354 C.ar    1  UNL1        0.0044
     13 C         141.2306  139.7948  166.4351 C.ar    1  UNL1        0.0512
     14 C         140.5345  140.2572  167.6808 C.ar    1  UNL1        0.2508
     15 N         140.8061  141.5335  168.4206 N.ar    1  UNL1       -0.1261
     16 N         139.8840  141.5896  169.6023 N.ar    1  UNL1       -0.1807
     17 C         139.8154  142.6935  170.6156 C.3     1  UNL1        0.1605
     18 C         139.0424  140.3479  169.5930 C.ar    1  UNL1        0.4391
     19 O         137.9846  139.9921  170.5952 O.2     1  UNL1       -0.2210
     20 O         139.4445  139.5245  168.4054 O.2     1  UNL1       -0.3878
     21 N         139.0165  140.9131  158.4604 N.am    1  UNL1       -0.2803
     22 C         138.2881  142.2062  158.2433 C.2     1  UNL1        0.2539
     23 O         138.1417  143.1832  159.3720 O.2     1  UNL1       -0.2697
     24 H         139.1126  140.2718  157.7196 H       1  UNL1        0.1552
     25 C         137.7060  142.5224  156.8974 C.ar    1  UNL1        0.1084
     26 C         136.5573  141.7155  156.3688 C.ar    1  UNL1        0.1467
     27 F         135.9907  140.5924  157.1859 F       1  UNL1       -0.2039
     28 C         135.9753  142.0317  155.0230 C.ar    1  UNL1        0.0299
     29 C         136.5419  143.1547  154.2058 C.ar    1  UNL1        0.0046
     30 C         137.6906  143.9616  154.7345 C.ar    1  UNL1        0.0299
     31 C         138.2726  143.6454  156.0803 C.ar    1  UNL1        0.1467
     32 F         139.4213  144.4523  156.6090 F       1  UNL1       -0.2039
@<TRIPOS>BOND
     1     7     8    1
     2     8     9   ar
     3     9     1    1
     4     1     2   ar
     5     2     3   ar
     6     3     4   ar
     7     4    21    1
     8    21    22   am
     9    22    23    2
    10    22    25    1
    11    25    26   ar
    12    26    27    1
    13    26    28   ar
    14    28    29   ar
    15    29    30   ar
    16    30    31   ar
    17    31    32    1
    18     4     5   ar
    19     5     6   ar
    20     9    10   ar
    21    10    11   ar
    22    11    12   ar
    23    12    13   ar
    24    13    14    1
    25    14    15   ar
    26    15    16   ar
    27    16    17    1
    28    16    18   ar
    29    18    19    2
    30    18    20   ar
    31    13     8   ar
    32    20    14   ar
    33     6     1   ar
    34    31    25   ar
    35    21    24    1
@<TRIPOS>MOLECULE
*****
 32 35 0 0 0
SMALL
GASTEIGER

@<TRIPOS>ATOM
      1 C         141.7817  143.5928  161.7924 C.ar    1  UNL1       -0.0002
      2 C         142.6387  144.2397  162.8397 C.ar    1  UNL1        0.0013
      3 C         142.3710  143.9810  164.2928 C.ar    1  UNL1        0.0147
      4 C         141.2461  143.0753  164.6985 C.ar    1  UNL1        0.0505
      5 C         140.3891  142.4284  163.6511 C.ar    1  UNL1        0.0147
      6 C         140.6569  142.6872  162.1980 C.ar    1  UNL1        0.0013
      7 C         143.7044  141.8495  160.2877 C.3     1  UNL1        0.0312
      8 C         143.0108  142.9799  159.5870 C.ar    1  UNL1       -0.0173
      9 C         142.0495  143.8516  160.3393 C.ar    1  UNL1       -0.0038
     10 C         141.3559  144.9820  159.6386 C.ar    1  UNL1       -0.0003
     11 C         141.6236  145.2408  158.1855 C.ar    1  UNL1        0.0001
     12 C         142.5849  144.3691  157.4332 C.ar    1  UNL1        0.0044
     13 C         143.2785  143.2387  158.1340 C.ar    1  UNL1        0.0512
     14 C         144.2399  142.3670  157.3816 C.ar    1  UNL1        0.2508
     15 N         145.6013  142.7694  156.8971 N.ar    1  UNL1       -0.1261
     16 N         146.2114  141.5910  156.1977 N.ar    1  UNL1       -0.1807
     17 C         147.5677  141.5504  155.5583 C.3     1  UNL1        0.1605
     18 C         145.2271  140.4603  156.2500 C.ar    1  UNL1        0.4391
     19 O         145.4263  139.0905  155.6721 O.2     1  UNL1       -0.2210
     20 O         144.0087  140.9399  156.9817 O.2     1  UNL1       -0.3878
     21 N         140.9783  142.8166  166.1515 N.am    1  UNL1       -0.2803
     22 C         141.6395  141.6605  166.8417 C.2     1  UNL1        0.2539
     23 O         142.5684  140.7632  166.0788 O.2     1  UNL1       -0.2697
     24 H         140.3687  143.4055  166.6522 H       1  UNL1        0.1552
     25 C         141.3717  141.4017  168.2947 C.ar    1  UNL1        0.1084
     26 C         140.1251  140.6783  168.7104 C.ar    1  UNL1        0.1467
     27 F         139.1463  140.2137  167.6731 F       1  UNL1       -0.2039
     28 C         139.8574  140.4195  170.1634 C.ar    1  UNL1        0.0299
     29 C         140.8362  140.8841  171.2008 C.ar    1  UNL1        0.0046
     30 C         142.0828  141.6075  170.7851 C.ar    1  UNL1        0.0299
     31 C         142.3505  141.8663  169.3321 C.ar    1  UNL1        0.1467
     32 F         143.5971  142.5897  168.9163 F       1  UNL1       -0.2039
@<TRIPOS>BOND
     1     7     8    1
     2     8     9   ar
     3     9     1    1
     4     1     2   ar
     5     2     3   ar
     6     3     4   ar
     7     4    21    1
     8    21    22   am
     9    22    23    2
    10    22    25    1
    11    25    26   ar
    12    26    27    1
    13    26    28   ar
    14    28    29   ar
    15    29    30   ar
    16    30    31   ar
    17    31    32    1
    18     4     5   ar
    19     5     6   ar
    20     9    10   ar
    21    10    11   ar
    22    11    12   ar
    23    12    13   ar
    24    13    14    1
    25    14    15   ar
    26    15    16   ar
    27    16    17    1
    28    16    18   ar
    29    18    19    2
    30    18    20   ar
    31    13     8   ar
    32    20    14   ar
    33     6     1   ar
    34    31    25   ar
    35    21    24    1
