@<TRIPOS>MOLECULE
*****
 30 32 0 0 0
SMALL
GASTEIGER

@<TRIPOS>ATOM
      1 S         141.5911  144.5464  162.2931 S.O2    1  UNL1        0.0768
      2 O         142.3385  143.2954  161.9379 O.2     1  UNL1       -0.1498
      3 O         140.8436  145.7975  162.6482 O.2     1  UNL1       -0.1498
      4 O         139.6007  144.4409  160.0509 O.2     1  UNL1       -0.2509
      5 C         140.9408  145.0793  159.8348 C.2     1  UNL1        0.3231
      6 N         141.2857  145.6650  158.4976 N.am    1  UNL1       -0.2671
      7 N         141.9360  145.1321  160.9559 N.am    1  UNL1       -0.1690
      8 H         142.1652  146.0840  158.3558 H       1  UNL1        0.1565
      9 H         142.8155  145.5511  160.8141 H       1  UNL1        0.1781
     10 C         140.2905  145.6123  157.3765 C.ar    1  UNL1        0.0516
     11 C         139.7391  146.8837  156.8026 C.ar    1  UNL1        0.0147
     12 C         138.7440  146.8310  155.6816 C.ar    1  UNL1        0.0013
     13 C         138.3002  145.5067  155.1343 C.ar    1  UNL1        0.0001
     14 C         138.8516  144.2353  155.7081 C.ar    1  UNL1        0.0013
     15 C         139.8467  144.2880  156.8292 C.ar    1  UNL1        0.0147
     16 C         141.2462  143.9608  163.6302 C.ar    1  UNL1        0.1255
     17 C         142.2027  143.0255  164.3087 C.ar    1  UNL1        0.0233
     18 C         141.8578  142.4399  165.6459 C.ar    1  UNL1        0.0383
     19 C         140.5563  142.7895  166.3046 C.ar    1  UNL1        0.1387
     20 C         139.5997  143.7247  165.6261 C.ar    1  UNL1        0.0383
     21 C         139.9446  144.3104  164.2890 C.ar    1  UNL1        0.0233
     22 O         140.2114  142.2038  167.6417 O.3     1  UNL1       -0.4740
     23 C         140.1524  140.7151  167.8158 C.3     1  UNL1        0.2226
     24 C         139.2373  139.8950  166.9554 C.3     1  UNL1        0.1200
     25 N         139.8005  139.0646  165.8404 N.3     1  UNL1       -0.2696
     26 C         141.2803  138.8363  165.7489 C.3     1  UNL1        0.0722
     27 C         141.8434  138.0059  164.6339 C.3     1  UNL1        0.0174
     28 C         140.9269  137.4038  163.6104 C.3     1  UNL1        0.0029
     29 C         139.4472  137.6322  163.7019 C.3     1  UNL1        0.0174
     30 C         138.8840  138.4626  164.8169 C.3     1  UNL1        0.0722
@<TRIPOS>BOND
     1     4     5    2
     2     5     6   am
     3     6    10    1
     4    10    11   ar
     5    11    12   ar
     6    12    13   ar
     7    13    14   ar
     8    14    15   ar
     9     5     7   am
    10     7     1    1
    11     1     2    2
    12     1     3    2
    13     1    16    1
    14    16    17   ar
    15    17    18   ar
    16    18    19   ar
    17    19    22    1
    18    22    23    1
    19    23    24    1
    20    24    25    1
    21    25    26    1
    22    26    27    1
    23    27    28    1
    24    28    29    1
    25    29    30    1
    26    19    20   ar
    27    20    21   ar
    28    15    10   ar
    29    21    16   ar
    30    30    25    1
    31     6     8    1
    32     7     9    1
@<TRIPOS>MOLECULE
*****
 30 32 0 0 0
SMALL
GASTEIGER

@<TRIPOS>ATOM
      1 S         141.5911  144.5201  162.1348 S.O2    1  UNL1        0.0768
      2 O         140.9281  145.7801  162.6069 O.2     1  UNL1       -0.1498
      3 O         142.2540  143.2601  161.6627 O.2     1  UNL1       -0.1498
      4 O         139.5801  144.3786  159.9130 O.2     1  UNL1       -0.2509
      5 C         140.8794  145.0985  159.7039 C.2     1  UNL1        0.3231
      6 N         141.1732  145.7476  158.3840 N.am    1  UNL1       -0.2671
      7 N         141.8849  145.1692  160.8148 N.am    1  UNL1       -0.1690
      8 H         142.0259  146.2201  158.2468 H       1  UNL1        0.1565
      9 H         142.7376  145.6417  160.6776 H       1  UNL1        0.1781
     10 C         140.1677  145.6769  157.2730 C.ar    1  UNL1        0.0516
     11 C         139.6946  144.3440  156.7734 C.ar    1  UNL1        0.0147
     12 C         138.6892  144.2733  155.6625 C.ar    1  UNL1        0.0013
     13 C         138.1569  145.5355  155.0513 C.ar    1  UNL1        0.0001
     14 C         138.6300  146.8683  155.5509 C.ar    1  UNL1        0.0013
     15 C         139.6354  146.9390  156.6618 C.ar    1  UNL1        0.0147
     16 C         141.2973  143.8710  163.4547 C.ar    1  UNL1        0.1255
     17 C         140.0919  144.2883  164.2439 C.ar    1  UNL1        0.0233
     18 C         139.7981  143.6392  165.5640 C.ar    1  UNL1        0.0383
     19 C         140.7097  142.5727  166.0947 C.ar    1  UNL1        0.1387
     20 C         141.9151  142.1554  165.3054 C.ar    1  UNL1        0.0383
     21 C         142.2089  142.8045  163.9855 C.ar    1  UNL1        0.0233
     22 O         140.4159  141.9236  167.4146 O.3     1  UNL1       -0.4740
     23 C         140.2234  140.4381  167.4935 C.3     1  UNL1        0.2226
     24 C         138.9416  139.8215  167.0170 C.3     1  UNL1        0.1200
     25 N         138.7915  139.4198  165.5796 N.3     1  UNL1       -0.2696
     26 C         138.2115  140.3844  164.5880 C.3     1  UNL1        0.0722
     27 C         138.0614  139.9827  163.1506 C.3     1  UNL1        0.0174
     28 C         138.4913  138.6165  162.7048 C.3     1  UNL1        0.0029
     29 C         139.0713  137.6520  163.6965 C.3     1  UNL1        0.0174
     30 C         139.2214  138.0537  165.1339 C.3     1  UNL1        0.0722
@<TRIPOS>BOND
     1     4     5    2
     2     5     6   am
     3     6    10    1
     4    10    11   ar
     5    11    12   ar
     6    12    13   ar
     7    13    14   ar
     8    14    15   ar
     9     5     7   am
    10     7     1    1
    11     1     2    2
    12     1     3    2
    13     1    16    1
    14    16    17   ar
    15    17    18   ar
    16    18    19   ar
    17    19    22    1
    18    22    23    1
    19    23    24    1
    20    24    25    1
    21    25    26    1
    22    26    27    1
    23    27    28    1
    24    28    29    1
    25    29    30    1
    26    19    20   ar
    27    20    21   ar
    28    15    10   ar
    29    21    16   ar
    30    30    25    1
    31     6     8    1
    32     7     9    1
@<TRIPOS>MOLECULE
*****
 30 32 0 0 0
SMALL
GASTEIGER

@<TRIPOS>ATOM
      1 S         138.3795  139.0581  164.6476 S.O2    1  UNL1        0.0768
      2 O         138.9320  137.6636  164.6495 O.2     1  UNL1       -0.1498
      3 O         137.8270  140.4526  164.6458 O.2     1  UNL1       -0.1498
      4 O         140.3708  140.4889  166.3761 O.2     1  UNL1       -0.2509
      5 C         139.2445  139.7237  167.0054 C.2     1  UNL1        0.3231
      6 N         139.1138  139.6739  168.4988 N.am    1  UNL1       -0.2671
      7 N         138.2488  139.0083  166.1411 N.am    1  UNL1       -0.1690
      8 H         138.3745  139.1717  168.9118 H       1  UNL1        0.1565
      9 H         137.5095  138.5061  166.5540 H       1  UNL1        0.1781
     10 C         140.1094  140.3893  169.3631 C.ar    1  UNL1        0.0516
     11 C         139.8682  141.8148  169.7628 C.ar    1  UNL1        0.0147
     12 C         140.8639  142.5301  170.6270 C.ar    1  UNL1        0.0013
     13 C         142.1007  141.8199  171.0916 C.ar    1  UNL1        0.0001
     14 C         142.3420  140.3945  170.6919 C.ar    1  UNL1        0.0013
     15 C         141.3463  139.6792  169.8277 C.ar    1  UNL1        0.0147
     16 C         138.5102  139.1079  163.1542 C.ar    1  UNL1        0.1255
     17 C         138.0227  140.3082  162.3982 C.ar    1  UNL1        0.0233
     18 C         138.1534  140.3580  160.9047 C.ar    1  UNL1        0.0383
     19 C         138.7716  139.2074  160.1672 C.ar    1  UNL1        0.1387
     20 C         139.2591  138.0070  160.9232 C.ar    1  UNL1        0.0383
     21 C         139.1285  137.9573  162.4166 C.ar    1  UNL1        0.0233
     22 O         138.9023  139.2572  158.6738 O.3     1  UNL1       -0.4740
     23 C         140.2460  139.0766  158.0321 C.3     1  UNL1        0.2226
     24 C         141.4149  139.8941  158.4964 C.3     1  UNL1        0.1200
     25 N         142.1508  139.5087  159.7454 N.3     1  UNL1       -0.2696
     26 C         142.1325  140.4187  160.9377 C.3     1  UNL1        0.0722
     27 C         142.8684  140.0333  162.1867 C.3     1  UNL1        0.0174
     28 C         143.6226  138.7379  162.2433 C.3     1  UNL1        0.0029
     29 C         143.6409  137.8280  161.0509 C.3     1  UNL1        0.0174
     30 C         142.9050  138.2134  159.8020 C.3     1  UNL1        0.0722
@<TRIPOS>BOND
     1     4     5    2
     2     5     6   am
     3     6    10    1
     4    10    11   ar
     5    11    12   ar
     6    12    13   ar
     7    13    14   ar
     8    14    15   ar
     9     5     7   am
    10     7     1    1
    11     1     2    2
    12     1     3    2
    13     1    16    1
    14    16    17   ar
    15    17    18   ar
    16    18    19   ar
    17    19    22    1
    18    22    23    1
    19    23    24    1
    20    24    25    1
    21    25    26    1
    22    26    27    1
    23    27    28    1
    24    28    29    1
    25    29    30    1
    26    19    20   ar
    27    20    21   ar
    28    15    10   ar
    29    21    16   ar
    30    30    25    1
    31     6     8    1
    32     7     9    1
@<TRIPOS>MOLECULE
*****
 30 32 0 0 0
SMALL
GASTEIGER

@<TRIPOS>ATOM
      1 S         142.5955  138.4196  164.2606 S.O2    1  UNL1        0.0768
      2 O         143.8024  139.2899  164.0710 O.2     1  UNL1       -0.1498
      3 O         141.3886  137.5494  164.4503 O.2     1  UNL1       -0.1498
      4 O         141.1969  140.5770  165.8066 O.2     1  UNL1       -0.2509
      5 C         142.0668  139.5858  166.5213 C.2     1  UNL1        0.3231
      6 N         142.2375  139.6733  168.0090 N.am    1  UNL1       -0.2671
      7 N         142.7661  138.5071  165.7483 N.am    1  UNL1       -0.1690
      8 H         142.8085  139.0228  168.4780 H       1  UNL1        0.1565
      9 H         143.3371  137.8566  166.2174 H       1  UNL1        0.1781
     10 C         141.5382  140.7520  168.7820 C.ar    1  UNL1        0.0516
     11 C         140.1616  140.5119  169.3270 C.ar    1  UNL1        0.0147
     12 C         139.4624  141.5906  170.1000 C.ar    1  UNL1        0.0013
     13 C         140.1398  142.9093  170.3279 C.ar    1  UNL1        0.0001
     14 C         141.5165  143.1494  169.7829 C.ar    1  UNL1        0.0013
     15 C         142.2157  142.0708  169.0099 C.ar    1  UNL1        0.0147
     16 C         142.4248  138.3321  162.7730 C.ar    1  UNL1        0.1255
     17 C         141.0619  138.4810  162.1643 C.ar    1  UNL1        0.0233
     18 C         140.8913  138.3935  160.6766 C.ar    1  UNL1        0.0383
     19 C         142.0835  138.1572  159.7976 C.ar    1  UNL1        0.1387
     20 C         143.4464  138.0083  160.4062 C.ar    1  UNL1        0.0383
     21 C         143.6170  138.0958  161.8938 C.ar    1  UNL1        0.0233
     22 O         141.9128  138.0697  158.3099 O.3     1  UNL1       -0.4740
     23 C         142.7453  137.1081  157.5147 C.3     1  UNL1        0.2226
     24 C         142.1200  136.3125  156.4074 C.3     1  UNL1        0.1200
     25 N         142.3029  134.8245  156.3572 N.3     1  UNL1       -0.2696
     26 C         141.4973  134.0019  155.3958 C.3     1  UNL1        0.0722
     27 C         141.6802  132.5139  155.3456 C.3     1  UNL1        0.0174
     28 C         142.6686  131.8486  156.2570 C.3     1  UNL1        0.0029
     29 C         143.4741  132.6712  157.2184 C.3     1  UNL1        0.0174
     30 C         143.2912  134.1592  157.2685 C.3     1  UNL1        0.0722
@<TRIPOS>BOND
     1     4     5    2
     2     5     6   am
     3     6    10    1
     4    10    11   ar
     5    11    12   ar
     6    12    13   ar
     7    13    14   ar
     8    14    15   ar
     9     5     7   am
    10     7     1    1
    11     1     2    2
    12     1     3    2
    13     1    16    1
    14    16    17   ar
    15    17    18   ar
    16    18    19   ar
    17    19    22    1
    18    22    23    1
    19    23    24    1
    20    24    25    1
    21    25    26    1
    22    26    27    1
    23    27    28    1
    24    28    29    1
    25    29    30    1
    26    19    20   ar
    27    20    21   ar
    28    15    10   ar
    29    21    16   ar
    30    30    25    1
    31     6     8    1
    32     7     9    1
@<TRIPOS>MOLECULE
*****
 30 32 0 0 0
SMALL
GASTEIGER

@<TRIPOS>ATOM
      1 S         143.2434  138.8062  164.1957 S.O2    1  UNL1        0.0768
      2 O         142.0116  137.9598  164.3232 O.2     1  UNL1       -0.1498
      3 O         144.4753  139.6525  164.0682 O.2     1  UNL1       -0.1498
      4 O         141.5729  140.7454  165.7606 O.2     1  UNL1       -0.2509
      5 C         142.5250  139.8308  166.4726 C.2     1  UNL1        0.3231
      6 N         142.6419  139.8858  167.9670 N.am    1  UNL1       -0.2671
      7 N         143.3603  138.8612  165.6901 N.am    1  UNL1       -0.1690
      8 H         143.2668  139.2855  168.4343 H       1  UNL1        0.1565
      9 H         143.9852  138.2609  166.1574 H       1  UNL1        0.1781
     10 C         141.8066  140.8554  168.7494 C.ar    1  UNL1        0.0516
     11 C         142.3230  142.2360  169.0276 C.ar    1  UNL1        0.0147
     12 C         141.4877  143.2055  169.8101 C.ar    1  UNL1        0.0013
     13 C         140.1361  142.7945  170.3143 C.ar    1  UNL1        0.0001
     14 C         139.6198  141.4140  170.0362 C.ar    1  UNL1        0.0013
     15 C         140.4551  140.4444  169.2537 C.ar    1  UNL1        0.0147
     16 C         143.1266  138.7512  162.7013 C.ar    1  UNL1        0.1255
     17 C         144.0881  139.5207  161.8450 C.ar    1  UNL1        0.0233
     18 C         143.9711  139.4657  160.3505 C.ar    1  UNL1        0.0383
     19 C         142.8928  138.6411  159.7124 C.ar    1  UNL1        0.1387
     20 C         141.9312  137.8716  160.5688 C.ar    1  UNL1        0.0383
     21 C         142.0481  137.9266  162.0632 C.ar    1  UNL1        0.0233
     22 O         142.7759  138.5862  158.2180 O.3     1  UNL1       -0.4740
     23 C         142.2848  137.3363  157.5496 C.3     1  UNL1        0.2226
     24 C         143.2665  136.3480  156.9933 C.3     1  UNL1        0.1200
     25 N         142.8018  134.9856  156.5713 N.3     1  UNL1       -0.2696
     26 C         143.4255  133.7609  157.1723 C.3     1  UNL1        0.0722
     27 C         142.9608  132.3986  156.7503 C.3     1  UNL1        0.0174
     28 C         141.8724  132.2610  155.7273 C.3     1  UNL1        0.0029
     29 C         141.2487  133.4856  155.1264 C.3     1  UNL1        0.0174
     30 C         141.7135  134.8480  155.5484 C.3     1  UNL1        0.0722
@<TRIPOS>BOND
     1     4     5    2
     2     5     6   am
     3     6    10    1
     4    10    11   ar
     5    11    12   ar
     6    12    13   ar
     7    13    14   ar
     8    14    15   ar
     9     5     7   am
    10     7     1    1
    11     1     2    2
    12     1     3    2
    13     1    16    1
    14    16    17   ar
    15    17    18   ar
    16    18    19   ar
    17    19    22    1
    18    22    23    1
    19    23    24    1
    20    24    25    1
    21    25    26    1
    22    26    27    1
    23    27    28    1
    24    28    29    1
    25    29    30    1
    26    19    20   ar
    27    20    21   ar
    28    15    10   ar
    29    21    16   ar
    30    30    25    1
    31     6     8    1
    32     7     9    1
@<TRIPOS>MOLECULE
*****
 30 32 0 0 0
SMALL
GASTEIGER

@<TRIPOS>ATOM
      1 S         138.8221  138.8544  161.7648 S.O2    1  UNL1        0.0768
      2 O         137.4386  138.2776  161.7100 O.2     1  UNL1       -0.1498
      3 O         140.2057  139.4312  161.8196 O.2     1  UNL1       -0.1498
      4 O         137.8881  141.1735  160.1067 O.2     1  UNL1       -0.2509
      5 C         138.4414  139.9492  159.4396 C.2     1  UNL1        0.3231
      6 N         138.5277  139.8845  157.9435 N.am    1  UNL1       -0.2671
      7 N         138.9084  138.7896  160.2687 N.am    1  UNL1       -0.1690
      8 H         138.8908  139.0809  157.5057 H       1  UNL1        0.1565
      9 H         139.2715  137.9861  159.8309 H       1  UNL1        0.1781
     10 C         138.0607  141.0441  157.1144 C.ar    1  UNL1        0.0516
     11 C         138.9506  142.2365  156.9240 C.ar    1  UNL1        0.0147
     12 C         138.4835  143.3960  156.0949 C.ar    1  UNL1        0.0013
     13 C         137.1267  143.3631  155.4563 C.ar    1  UNL1        0.0001
     14 C         136.2368  142.1707  155.6468 C.ar    1  UNL1        0.0013
     15 C         136.7038  141.0112  156.4758 C.ar    1  UNL1        0.0147
     16 C         138.7358  138.9191  163.2609 C.ar    1  UNL1        0.1255
     17 C         138.8951  137.6701  164.0761 C.ar    1  UNL1        0.0233
     18 C         138.8088  137.7349  165.5723 C.ar    1  UNL1        0.0383
     19 C         138.5632  139.0487  166.2531 C.ar    1  UNL1        0.1387
     20 C         138.4040  140.2977  165.4379 C.ar    1  UNL1        0.0383
     21 C         138.4903  140.2330  163.9418 C.ar    1  UNL1        0.0233
     22 O         138.4769  139.1134  167.7492 O.3     1  UNL1       -0.4740
     23 C         139.3158  140.0994  168.5069 C.3     1  UNL1        0.2226
     24 C         140.8010  139.9086  168.5956 C.3     1  UNL1        0.1200
     25 N         141.6844  140.3670  167.4734 N.3     1  UNL1       -0.2696
     26 C         142.2135  139.3737  166.4816 C.3     1  UNL1        0.0722
     27 C         143.0969  139.8322  165.3593 C.3     1  UNL1        0.0174
     28 C         143.4512  141.2839  165.2288 C.3     1  UNL1        0.0029
     29 C         142.9222  142.2771  166.2206 C.3     1  UNL1        0.0174
     30 C         142.0388  141.8187  167.3428 C.3     1  UNL1        0.0722
@<TRIPOS>BOND
     1     4     5    2
     2     5     6   am
     3     6    10    1
     4    10    11   ar
     5    11    12   ar
     6    12    13   ar
     7    13    14   ar
     8    14    15   ar
     9     5     7   am
    10     7     1    1
    11     1     2    2
    12     1     3    2
    13     1    16    1
    14    16    17   ar
    15    17    18   ar
    16    18    19   ar
    17    19    22    1
    18    22    23    1
    19    23    24    1
    20    24    25    1
    21    25    26    1
    22    26    27    1
    23    27    28    1
    24    28    29    1
    25    29    30    1
    26    19    20   ar
    27    20    21   ar
    28    15    10   ar
    29    21    16   ar
    30    30    25    1
    31     6     8    1
    32     7     9    1
@<TRIPOS>MOLECULE
*****
 30 32 0 0 0
SMALL
GASTEIGER

@<TRIPOS>ATOM
      1 S         142.9127  136.0808  156.6394 S.O2    1  UNL1        0.0768
      2 O         142.4064  136.0095  155.2292 O.2     1  UNL1       -0.1498
      3 O         143.4189  136.1520  158.0495 O.2     1  UNL1       -0.1498
      4 O         142.6832  133.1634  157.3002 O.2     1  UNL1       -0.2509
      5 C         143.9132  133.6832  156.6168 C.2     1  UNL1        0.3231
      6 N         145.0285  132.7443  156.2639 N.am    1  UNL1       -0.2671
      7 N         144.0279  135.1419  156.2864 N.am    1  UNL1       -0.1690
      8 H         145.8358  133.0854  155.8154 H       1  UNL1        0.1565
      9 H         144.8352  135.4830  155.8379 H       1  UNL1        0.1781
     10 C         144.9138  131.2856  156.5943 C.ar    1  UNL1        0.0516
     11 C         144.8039  130.2735  155.4927 C.ar    1  UNL1        0.0147
     12 C         144.6892  128.8148  155.8232 C.ar    1  UNL1        0.0013
     13 C         144.6844  128.3683  157.2552 C.ar    1  UNL1        0.0001
     14 C         144.7943  129.3805  158.3567 C.ar    1  UNL1        0.0013
     15 C         144.9090  130.8391  158.0263 C.ar    1  UNL1        0.0147
     16 C         141.7974  137.0197  156.9923 C.ar    1  UNL1        0.1255
     17 C         140.5188  136.9938  156.2084 C.ar    1  UNL1        0.0233
     18 C         139.4035  137.9328  156.5614 C.ar    1  UNL1        0.0383
     19 C         139.5668  138.8975  157.6983 C.ar    1  UNL1        0.1387
     20 C         140.8454  138.9233  158.4822 C.ar    1  UNL1        0.0383
     21 C         141.9607  137.9845  158.1293 C.ar    1  UNL1        0.0233
     22 O         138.4516  139.8364  158.0512 O.3     1  UNL1       -0.4740
     23 C         138.3533  140.3960  159.4394 C.3     1  UNL1        0.2226
     24 C         137.3975  139.7924  160.4255 C.3     1  UNL1        0.1200
     25 N         137.8730  139.4177  161.7979 N.3     1  UNL1       -0.2696
     26 C         137.7858  140.4106  162.9190 C.3     1  UNL1        0.0722
     27 C         138.2612  140.0358  164.2914 C.3     1  UNL1        0.0174
     28 C         138.8240  138.6682  164.5427 C.3     1  UNL1        0.0029
     29 C         138.9112  137.6755  163.4217 C.3     1  UNL1        0.0174
     30 C         138.4357  138.0502  162.0493 C.3     1  UNL1        0.0722
@<TRIPOS>BOND
     1     4     5    2
     2     5     6   am
     3     6    10    1
     4    10    11   ar
     5    11    12   ar
     6    12    13   ar
     7    13    14   ar
     8    14    15   ar
     9     5     7   am
    10     7     1    1
    11     1     2    2
    12     1     3    2
    13     1    16    1
    14    16    17   ar
    15    17    18   ar
    16    18    19   ar
    17    19    22    1
    18    22    23    1
    19    23    24    1
    20    24    25    1
    21    25    26    1
    22    26    27    1
    23    27    28    1
    24    28    29    1
    25    29    30    1
    26    19    20   ar
    27    20    21   ar
    28    15    10   ar
    29    21    16   ar
    30    30    25    1
    31     6     8    1
    32     7     9    1
@<TRIPOS>MOLECULE
*****
 30 32 0 0 0
SMALL
GASTEIGER

@<TRIPOS>ATOM
      1 S         142.9053  139.8372  158.3516 S.O2    1  UNL1        0.0768
      2 O         143.7087  139.2263  159.4612 O.2     1  UNL1       -0.1498
      3 O         142.1018  140.4481  157.2420 O.2     1  UNL1       -0.1498
      4 O         141.9116  137.1900  157.3492 O.2     1  UNL1       -0.2509
      5 C         143.2114  137.7430  156.8447 C.2     1  UNL1        0.3231
      6 N         144.0144  136.9725  155.8390 N.am    1  UNL1       -0.2671
      7 N         143.7083  139.0667  157.3459 N.am    1  UNL1       -0.1690
      8 H         144.8675  137.3354  155.5079 H       1  UNL1        0.1565
      9 H         144.5614  139.4297  157.0148 H       1  UNL1        0.1781
     10 C         143.5176  135.6488  155.3378 C.ar    1  UNL1        0.0516
     11 C         142.6125  135.5910  154.1431 C.ar    1  UNL1        0.0147
     12 C         142.1157  134.2673  153.6420 C.ar    1  UNL1        0.0013
     13 C         142.5240  133.0015  154.3356 C.ar    1  UNL1        0.0001
     14 C         143.4291  133.0594  155.5303 C.ar    1  UNL1        0.0013
     15 C         143.9258  134.3830  156.0314 C.ar    1  UNL1        0.0147
     16 C         142.1023  140.6078  159.3572 C.ar    1  UNL1        0.1255
     17 C         141.9420  140.0801  160.7522 C.ar    1  UNL1        0.0233
     18 C         141.1389  140.8507  161.7579 C.ar    1  UNL1        0.0383
     19 C         140.4962  142.1489  161.3686 C.ar    1  UNL1        0.1387
     20 C         140.6565  142.6766  159.9736 C.ar    1  UNL1        0.0383
     21 C         141.4595  141.9060  158.9680 C.ar    1  UNL1        0.0233
     22 O         139.6932  142.9195  162.3743 O.3     1  UNL1       -0.4740
     23 C         138.1952  142.9184  162.2976 C.3     1  UNL1        0.2226
     24 C         137.4063  141.8907  163.0537 C.3     1  UNL1        0.1200
     25 N         137.8688  140.4641  163.0851 N.3     1  UNL1       -0.2696
     26 C         138.4267  139.8843  164.3511 C.3     1  UNL1        0.0722
     27 C         138.8892  138.4577  164.3825 C.3     1  UNL1        0.0174
     28 C         138.7938  137.6110  163.1480 C.3     1  UNL1        0.0029
     29 C         138.2358  138.1908  161.8821 C.3     1  UNL1        0.0174
     30 C         137.7733  139.6173  161.8507 C.3     1  UNL1        0.0722
@<TRIPOS>BOND
     1     4     5    2
     2     5     6   am
     3     6    10    1
     4    10    11   ar
     5    11    12   ar
     6    12    13   ar
     7    13    14   ar
     8    14    15   ar
     9     5     7   am
    10     7     1    1
    11     1     2    2
    12     1     3    2
    13     1    16    1
    14    16    17   ar
    15    17    18   ar
    16    18    19   ar
    17    19    22    1
    18    22    23    1
    19    23    24    1
    20    24    25    1
    21    25    26    1
    22    26    27    1
    23    27    28    1
    24    28    29    1
    25    29    30    1
    26    19    20   ar
    27    20    21   ar
    28    15    10   ar
    29    21    16   ar
    30    30    25    1
    31     6     8    1
    32     7     9    1
@<TRIPOS>MOLECULE
*****
 30 32 0 0 0
SMALL
GASTEIGER

@<TRIPOS>ATOM
      1 S         139.9533  138.7029  161.9324 S.O2    1  UNL1        0.0768
      2 O         140.2878  137.3402  162.4626 O.2     1  UNL1       -0.1498
      3 O         139.6187  140.0656  161.4022 O.2     1  UNL1       -0.1498
      4 O         141.1568  140.0817  164.3095 O.2     1  UNL1       -0.2509
      5 C         139.7176  139.6596  164.3364 C.2     1  UNL1        0.3231
      6 N         138.8803  139.9269  165.5518 N.am    1  UNL1       -0.2671
      7 N         139.1159  138.9702  163.1478 N.am    1  UNL1       -0.1690
      8 H         137.9357  139.6499  165.5695 H       1  UNL1        0.1565
      9 H         138.1713  138.6932  163.1655 H       1  UNL1        0.1781
     10 C         139.4820  140.6163  166.7405 C.ar    1  UNL1        0.0516
     11 C         139.5080  139.9281  168.0730 C.ar    1  UNL1        0.0147
     12 C         140.1098  140.6175  169.2615 C.ar    1  UNL1        0.0013
     13 C         140.6855  141.9951  169.1175 C.ar    1  UNL1        0.0001
     14 C         140.6594  142.6833  167.7849 C.ar    1  UNL1        0.0013
     15 C         140.0577  141.9939  166.5964 C.ar    1  UNL1        0.0147
     16 C         140.7907  138.4356  160.7170 C.ar    1  UNL1        0.1255
     17 C         140.2203  138.6631  159.3484 C.ar    1  UNL1        0.0233
     18 C         141.0578  138.3958  158.1329 C.ar    1  UNL1        0.0383
     19 C         142.4655  137.9010  158.2861 C.ar    1  UNL1        0.1387
     20 C         143.0358  137.6736  159.6547 C.ar    1  UNL1        0.0383
     21 C         142.1985  137.9409  160.8701 C.ar    1  UNL1        0.0233
     22 O         143.3029  137.6337  157.0707 O.3     1  UNL1       -0.4740
     23 C         143.3976  136.2432  156.5161 C.3     1  UNL1        0.2226
     24 C         142.1489  135.4586  156.2417 C.3     1  UNL1        0.1200
     25 N         142.2106  133.9635  156.1364 N.3     1  UNL1       -0.2696
     26 C         141.3444  133.2452  155.1445 C.3     1  UNL1        0.0722
     27 C         141.4061  131.7502  155.0392 C.3     1  UNL1        0.0174
     28 C         142.3340  130.9735  155.9257 C.3     1  UNL1        0.0029
     29 C         143.2001  131.6918  156.9175 C.3     1  UNL1        0.0174
     30 C         143.1385  133.1869  157.0228 C.3     1  UNL1        0.0722
@<TRIPOS>BOND
     1     4     5    2
     2     5     6   am
     3     6    10    1
     4    10    11   ar
     5    11    12   ar
     6    12    13   ar
     7    13    14   ar
     8    14    15   ar
     9     5     7   am
    10     7     1    1
    11     1     2    2
    12     1     3    2
    13     1    16    1
    14    16    17   ar
    15    17    18   ar
    16    18    19   ar
    17    19    22    1
    18    22    23    1
    19    23    24    1
    20    24    25    1
    21    25    26    1
    22    26    27    1
    23    27    28    1
    24    28    29    1
    25    29    30    1
    26    19    20   ar
    27    20    21   ar
    28    15    10   ar
    29    21    16   ar
    30    30    25    1
    31     6     8    1
    32     7     9    1
