@<TRIPOS>MOLECULE
*****
 40 43 0 0 0
SMALL
GASTEIGER

@<TRIPOS>ATOM
      1 C         138.3629  139.3524  161.3266 C.ar    1  UNL1        0.1223
      2 N         138.9379  139.1584  159.9549 N.ar    1  UNL1       -0.2368
      3 C         139.1048  140.3340  159.0384 C.ar    1  UNL1        0.0610
      4 C         138.6966  141.7037  159.4935 C.ar    1  UNL1        0.0587
      5 C         138.1215  141.8978  160.8652 C.ar    1  UNL1        0.2596
      6 O         137.7133  143.2675  161.3205 O.2     1  UNL1       -0.2672
      7 N         137.9547  140.7221  161.7818 N.ar    1  UNL1       -0.2801
      8 C         139.6799  140.1399  157.6666 C.3     1  UNL1        0.0402
      9 C         138.7682  139.9355  156.4932 C.3     1  UNL1        0.0063
     10 C         141.1667  140.1502  157.4683 C.3     1  UNL1        0.0063
     11 C         138.1961  138.1768  162.2431 C.3     1  UNL1        0.0640
     12 C         139.3738  137.6483  163.0070 C.3     1  UNL1        0.0079
     13 C         141.8707  137.8842  162.3288 C.3     1  UNL1        0.0000
     14 C         140.6593  138.4208  163.0323 C.3     1  UNL1        0.0005
     15 C         138.8634  142.8794  158.5770 C.3     1  UNL1        0.1418
     16 C         140.0025  143.8337  158.7810 C.2     1  UNL1        0.3217
     17 O         141.3463  143.5361  158.1843 O.2     1  UNL1       -0.2497
     18 O         139.7981  145.0855  159.5816 O.3     1  UNL1       -0.4483
     19 C         140.5679  145.2978  160.8514 C.3     1  UNL1        0.2086
     20 C         139.9193  145.9863  162.0156 C.3     1  UNL1        0.0513
     21 C         137.3796  140.9162  163.1535 C.3     1  UNL1        0.1368
     22 C         138.2826  141.2424  164.3060 C.ar    1  UNL1        0.0005
     23 C         139.0000  142.5591  164.3475 C.ar    1  UNL1       -0.0024
     24 C         139.9030  142.8852  165.5000 C.ar    1  UNL1       -0.0003
     25 C         140.0885  141.8946  166.6111 C.ar    1  UNL1        0.0001
     26 C         139.3711  140.5780  166.5696 C.ar    1  UNL1       -0.0003
     27 C         138.4681  140.2519  165.4171 C.ar    1  UNL1       -0.0024
     28 C         140.9915  142.2207  167.7636 C.ar    1  UNL1        0.0030
     29 C         140.4878  143.0674  168.8948 C.ar    1  UNL1        0.0001
     30 C         141.3907  143.3935  170.0473 C.ar    1  UNL1        0.0000
     31 C         142.7974  142.8729  170.0686 C.ar    1  UNL1        0.0001
     32 C         143.3010  142.0263  168.9375 C.ar    1  UNL1        0.0031
     33 C         142.3981  141.7002  167.7850 C.ar    1  UNL1        0.0367
     34 C         142.9018  140.8535  166.6538 C.ar    1  UNL1        0.1761
     35 N         142.9161  139.3541  166.6133 N.ar    1  UNL1       -0.1970
     36 O         143.5027  138.9315  165.2990 O.2     1  UNL1       -0.3201
     37 C         143.8510  140.1698  164.5273 C.ar    1  UNL1        0.4607
     38 O         144.4631  140.2126  163.1586 O.2     1  UNL1       -0.2188
     39 N         143.4795  141.3576  165.3646 N.ar    1  UNL1       -0.1532
     40 H         142.5965  138.7530  167.3245 H       1  UNL1        0.2092
@<TRIPOS>BOND
     1    13    14    1
     2    14    12    1
     3    12    11    1
     4    11     1    1
     5     1     2   ar
     6     2     3   ar
     7     3     8    1
     8     8     9    1
     9     8    10    1
    10     3     4   ar
    11     4    15    1
    12    15    16    1
    13    16    17    2
    14    16    18    1
    15    18    19    1
    16    19    20    1
    17     4     5   ar
    18     5     6    2
    19     5     7   ar
    20     7    21    1
    21    21    22    1
    22    22    23   ar
    23    23    24   ar
    24    24    25   ar
    25    25    28    1
    26    28    29   ar
    27    29    30   ar
    28    30    31   ar
    29    31    32   ar
    30    32    33   ar
    31    33    34    1
    32    34    35   ar
    33    35    36   ar
    34    36    37   ar
    35    37    38    2
    36    37    39   ar
    37    25    26   ar
    38    26    27   ar
    39     7     1   ar
    40    27    22   ar
    41    33    28   ar
    42    39    34   ar
    43    35    40    1
@<TRIPOS>MOLECULE
*****
 40 43 0 0 0
SMALL
GASTEIGER

@<TRIPOS>ATOM
      1 C         138.1591  140.5924  160.7172 C.ar    1  UNL1        0.1223
      2 N         138.8406  140.5906  159.3810 N.ar    1  UNL1       -0.2368
      3 C         139.5085  141.8359  158.8780 C.ar    1  UNL1        0.0610
      4 C         139.4949  143.0831  159.7112 C.ar    1  UNL1        0.0587
      5 C         138.8134  143.0850  161.0474 C.ar    1  UNL1        0.2596
      6 O         138.7998  144.3322  161.8807 O.2     1  UNL1       -0.2672
      7 N         138.1455  141.8396  161.5504 N.ar    1  UNL1       -0.2801
      8 C         140.1901  141.8340  157.5417 C.3     1  UNL1        0.0402
      9 C         139.4438  142.2779  156.3186 C.3     1  UNL1        0.0063
     10 C         141.6178  141.3883  157.4287 C.3     1  UNL1        0.0063
     11 C         137.4912  139.3471  161.2203 C.3     1  UNL1        0.0640
     12 C         138.3050  138.1162  161.4899 C.3     1  UNL1        0.0079
     13 C         140.2152  137.4535  163.1215 C.3     1  UNL1        0.0000
     14 C         139.7295  138.2431  161.9421 C.3     1  UNL1        0.0005
     15 C         140.1628  144.3285  159.2082 C.3     1  UNL1        0.1418
     16 C         141.5960  144.6033  159.5551 C.2     1  UNL1        0.3217
     17 O         142.6389  144.6195  158.4770 O.2     1  UNL1       -0.2497
     18 O         141.9864  144.8621  160.9802 O.3     1  UNL1       -0.4483
     19 C         142.5625  143.7553  161.8127 C.3     1  UNL1        0.2086
     20 C         142.2415  143.6722  163.2756 C.3     1  UNL1        0.0513
     21 C         137.4640  141.8415  162.8867 C.3     1  UNL1        0.1368
     22 C         138.2246  141.4443  164.1171 C.ar    1  UNL1        0.0005
     23 C         139.1312  142.4320  164.7899 C.ar    1  UNL1       -0.0024
     24 C         139.8918  142.0348  166.0202 C.ar    1  UNL1       -0.0003
     25 C         139.7457  140.6499  166.5778 C.ar    1  UNL1        0.0001
     26 C         138.8391  139.6623  165.9050 C.ar    1  UNL1       -0.0003
     27 C         138.0786  140.0595  164.6746 C.ar    1  UNL1       -0.0024
     28 C         140.5063  140.2527  167.8081 C.ar    1  UNL1        0.0030
     29 C         139.8622  140.3681  169.1579 C.ar    1  UNL1        0.0001
     30 C         140.6227  139.9709  170.3883 C.ar    1  UNL1        0.0000
     31 C         142.0274  139.4583  170.2688 C.ar    1  UNL1        0.0001
     32 C         142.6715  139.3429  168.9191 C.ar    1  UNL1        0.0031
     33 C         141.9109  139.7401  167.6887 C.ar    1  UNL1        0.0367
     34 C         142.5550  139.6248  166.3389 C.ar    1  UNL1        0.1761
     35 N         142.6250  138.3842  165.4987 N.ar    1  UNL1       -0.1970
     36 O         143.3554  138.7223  164.2328 O.2     1  UNL1       -0.3201
     37 C         143.7368  140.1719  164.2909 C.ar    1  UNL1        0.4607
     38 O         144.4821  140.9306  163.2331 O.2     1  UNL1       -0.2188
     39 N         143.2421  140.7296  165.5925 N.ar    1  UNL1       -0.1532
     40 H         142.2563  137.5028  165.7362 H       1  UNL1        0.2092
@<TRIPOS>BOND
     1    13    14    1
     2    14    12    1
     3    12    11    1
     4    11     1    1
     5     1     2   ar
     6     2     3   ar
     7     3     8    1
     8     8     9    1
     9     8    10    1
    10     3     4   ar
    11     4    15    1
    12    15    16    1
    13    16    17    2
    14    16    18    1
    15    18    19    1
    16    19    20    1
    17     4     5   ar
    18     5     6    2
    19     5     7   ar
    20     7    21    1
    21    21    22    1
    22    22    23   ar
    23    23    24   ar
    24    24    25   ar
    25    25    28    1
    26    28    29   ar
    27    29    30   ar
    28    30    31   ar
    29    31    32   ar
    30    32    33   ar
    31    33    34    1
    32    34    35   ar
    33    35    36   ar
    34    36    37   ar
    35    37    38    2
    36    37    39   ar
    37    25    26   ar
    38    26    27   ar
    39     7     1   ar
    40    27    22   ar
    41    33    28   ar
    42    39    34   ar
    43    35    40    1
@<TRIPOS>MOLECULE
*****
 40 43 0 0 0
SMALL
GASTEIGER

@<TRIPOS>ATOM
      1 C         139.5489  144.4553  161.4905 C.ar    1  UNL1        0.1223
      2 N         140.0900  144.3591  160.0949 N.ar    1  UNL1       -0.2368
      3 C         139.6880  143.2151  159.2118 C.ar    1  UNL1        0.0610
      4 C         138.7450  142.1674  159.7244 C.ar    1  UNL1        0.0587
      5 C         138.2039  142.2636  161.1200 C.ar    1  UNL1        0.2596
      6 O         137.2607  141.2158  161.6327 O.2     1  UNL1       -0.2672
      7 N         138.6058  143.4075  162.0031 N.ar    1  UNL1       -0.2801
      8 C         140.2292  143.1189  157.8161 C.3     1  UNL1        0.0402
      9 C         139.4960  143.7698  156.6809 C.3     1  UNL1        0.0063
     10 C         141.5036  142.3719  157.5556 C.3     1  UNL1        0.0063
     11 C         139.9509  145.5992  162.3736 C.3     1  UNL1        0.0640
     12 C         141.2404  145.5398  163.1375 C.3     1  UNL1        0.0079
     13 C         143.5048  144.3703  163.6421 C.3     1  UNL1        0.0000
     14 C         142.2095  144.4226  162.8874 C.3     1  UNL1        0.0005
     15 C         138.3430  141.0234  158.8413 C.3     1  UNL1        0.1418
     16 C         139.0871  139.7231  158.9131 C.2     1  UNL1        0.3217
     17 O         139.1323  138.8177  157.7179 O.2     1  UNL1       -0.2497
     18 O         139.7862  139.3279  160.1801 O.3     1  UNL1       -0.4483
     19 C         139.2768  138.1716  160.9884 C.3     1  UNL1        0.2086
     20 C         139.7375  137.9851  162.4037 C.3     1  UNL1        0.0513
     21 C         138.0647  143.5037  163.3988 C.3     1  UNL1        0.1368
     22 C         138.7466  142.7761  164.5194 C.ar    1  UNL1        0.0005
     23 C         138.4935  141.3122  164.7269 C.ar    1  UNL1       -0.0024
     24 C         139.1754  140.5847  165.8475 C.ar    1  UNL1       -0.0003
     25 C         140.1104  141.3211  166.7605 C.ar    1  UNL1        0.0001
     26 C         140.3635  142.7849  166.5529 C.ar    1  UNL1       -0.0003
     27 C         139.6816  143.5124  165.4324 C.ar    1  UNL1       -0.0024
     28 C         140.7924  140.5935  167.8811 C.ar    1  UNL1        0.0030
     29 C         140.2373  140.6700  169.2725 C.ar    1  UNL1        0.0001
     30 C         140.9192  139.9425  170.3931 C.ar    1  UNL1        0.0000
     31 C         142.1562  139.1384  170.1222 C.ar    1  UNL1        0.0001
     32 C         142.7113  139.0619  168.7308 C.ar    1  UNL1        0.0031
     33 C         142.0293  139.7895  167.6102 C.ar    1  UNL1        0.0367
     34 C         142.5844  139.7129  166.2188 C.ar    1  UNL1        0.1761
     35 N         142.4129  138.5698  165.2628 N.ar    1  UNL1       -0.1970
     36 O         143.1310  138.9164  163.9922 O.2     1  UNL1       -0.3201
     37 C         143.7462  140.2738  164.1630 C.ar    1  UNL1        0.4607
     38 O         144.5569  141.0097  163.1378 O.2     1  UNL1       -0.2188
     39 N         143.4084  140.7660  165.5391 N.ar    1  UNL1       -0.1532
     40 H         141.9163  137.7381  165.4385 H       1  UNL1        0.2092
@<TRIPOS>BOND
     1    13    14    1
     2    14    12    1
     3    12    11    1
     4    11     1    1
     5     1     2   ar
     6     2     3   ar
     7     3     8    1
     8     8     9    1
     9     8    10    1
    10     3     4   ar
    11     4    15    1
    12    15    16    1
    13    16    17    2
    14    16    18    1
    15    18    19    1
    16    19    20    1
    17     4     5   ar
    18     5     6    2
    19     5     7   ar
    20     7    21    1
    21    21    22    1
    22    22    23   ar
    23    23    24   ar
    24    24    25   ar
    25    25    28    1
    26    28    29   ar
    27    29    30   ar
    28    30    31   ar
    29    31    32   ar
    30    32    33   ar
    31    33    34    1
    32    34    35   ar
    33    35    36   ar
    34    36    37   ar
    35    37    38    2
    36    37    39   ar
    37    25    26   ar
    38    26    27   ar
    39     7     1   ar
    40    27    22   ar
    41    33    28   ar
    42    39    34   ar
    43    35    40    1
@<TRIPOS>MOLECULE
*****
 40 43 0 0 0
SMALL
GASTEIGER

@<TRIPOS>ATOM
      1 C         143.3575  143.2924  160.9424 C.ar    1  UNL1        0.1223
      2 N         143.4023  142.5381  159.6466 N.ar    1  UNL1       -0.2368
      3 C         142.2216  142.5655  158.7217 C.ar    1  UNL1        0.0610
      4 C         140.9963  143.3471  159.0926 C.ar    1  UNL1        0.0587
      5 C         140.9516  144.1013  160.3884 C.ar    1  UNL1        0.2596
      6 O         139.7262  144.8829  160.7594 O.2     1  UNL1       -0.2672
      7 N         142.1322  144.0739  161.3133 N.ar    1  UNL1       -0.2801
      8 C         142.2664  141.8112  157.4258 C.3     1  UNL1        0.0402
      9 C         142.7482  142.4911  156.1786 C.3     1  UNL1        0.0063
     10 C         141.8294  140.3771  157.3774 C.3     1  UNL1        0.0063
     11 C         144.5382  143.2650  161.8672 C.3     1  UNL1        0.0640
     12 C         145.2581  141.9749  162.1264 C.3     1  UNL1        0.0079
     13 C         145.0462  140.4223  164.1988 C.3     1  UNL1        0.0000
     14 C         145.6647  141.6105  163.5235 C.3     1  UNL1        0.0005
     15 C         139.8157  143.3744  158.1677 C.3     1  UNL1        0.1418
     16 C         138.7094  142.3753  158.3340 C.2     1  UNL1        0.3217
     17 O         137.4028  142.5780  157.6255 O.2     1  UNL1       -0.2497
     18 O         138.9095  141.1733  159.2089 O.3     1  UNL1       -0.4483
     19 C         138.0315  140.9631  160.4068 C.3     1  UNL1        0.2086
     20 C         138.1463  141.8773  161.5905 C.3     1  UNL1        0.0513
     21 C         142.0874  144.8282  162.6091 C.3     1  UNL1        0.1368
     22 C         141.6356  144.1393  163.8626 C.ar    1  UNL1        0.0005
     23 C         140.2074  144.2518  164.3072 C.ar    1  UNL1       -0.0024
     24 C         139.7556  143.5630  165.5607 C.ar    1  UNL1       -0.0003
     25 C         140.7320  142.7616  166.3697 C.ar    1  UNL1        0.0001
     26 C         142.1602  142.6491  165.9251 C.ar    1  UNL1       -0.0003
     27 C         142.6120  143.3380  164.6716 C.ar    1  UNL1       -0.0024
     28 C         140.2802  142.0727  167.6232 C.ar    1  UNL1        0.0030
     29 C         140.2911  142.8097  168.9297 C.ar    1  UNL1        0.0001
     30 C         139.8393  142.1208  170.1832 C.ar    1  UNL1        0.0000
     31 C         139.3766  140.6949  170.1303 C.ar    1  UNL1        0.0001
     32 C         139.3658  139.9579  168.8239 C.ar    1  UNL1        0.0031
     33 C         139.8176  140.6468  167.5703 C.ar    1  UNL1        0.0367
     34 C         139.8067  139.9098  166.2639 C.ar    1  UNL1        0.1761
     35 N         140.9585  139.1571  165.6667 N.ar    1  UNL1       -0.1970
     36 O         140.5058  138.5781  164.3590 O.2     1  UNL1       -0.3201
     37 C         139.0742  138.9731  164.1481 C.ar    1  UNL1        0.4607
     38 O         138.2239  138.6090  162.9673 O.2     1  UNL1       -0.2188
     39 N         138.6421  139.7961  165.3254 N.ar    1  UNL1       -0.1532
     40 H         141.8544  139.0600  166.0634 H       1  UNL1        0.2092
@<TRIPOS>BOND
     1    13    14    1
     2    14    12    1
     3    12    11    1
     4    11     1    1
     5     1     2   ar
     6     2     3   ar
     7     3     8    1
     8     8     9    1
     9     8    10    1
    10     3     4   ar
    11     4    15    1
    12    15    16    1
    13    16    17    2
    14    16    18    1
    15    18    19    1
    16    19    20    1
    17     4     5   ar
    18     5     6    2
    19     5     7   ar
    20     7    21    1
    21    21    22    1
    22    22    23   ar
    23    23    24   ar
    24    24    25   ar
    25    25    28    1
    26    28    29   ar
    27    29    30   ar
    28    30    31   ar
    29    31    32   ar
    30    32    33   ar
    31    33    34    1
    32    34    35   ar
    33    35    36   ar
    34    36    37   ar
    35    37    38    2
    36    37    39   ar
    37    25    26   ar
    38    26    27   ar
    39     7     1   ar
    40    27    22   ar
    41    33    28   ar
    42    39    34   ar
    43    35    40    1
@<TRIPOS>MOLECULE
*****
 40 43 0 0 0
SMALL
GASTEIGER

@<TRIPOS>ATOM
      1 C         143.7756  142.0226  165.1874 C.ar    1  UNL1        0.1223
      2 N         143.4716  142.6534  166.5138 N.ar    1  UNL1       -0.2368
      3 C         142.7072  141.8862  167.5516 C.ar    1  UNL1        0.0610
      4 C         142.2469  140.4881  167.2630 C.ar    1  UNL1        0.0587
      5 C         142.5509  139.8573  165.9365 C.ar    1  UNL1        0.2596
      6 O         142.0905  138.4591  165.6477 O.2     1  UNL1       -0.2672
      7 N         143.3153  140.6245  164.8987 N.ar    1  UNL1       -0.2801
      8 C         142.4032  142.5171  168.8782 C.3     1  UNL1        0.0402
      9 C         141.0780  143.1815  169.1065 C.3     1  UNL1        0.0063
     10 C         143.4245  142.4834  169.9763 C.3     1  UNL1        0.0063
     11 C         144.5400  142.7899  164.1496 C.3     1  UNL1        0.0640
     12 C         144.0021  144.0904  163.6308 C.3     1  UNL1        0.0079
     13 C         141.5494  144.8706  163.9856 C.3     1  UNL1        0.0000
     14 C         142.5840  144.1769  163.1497 C.3     1  UNL1        0.0005
     15 C         141.4825  139.7208  168.3008 C.3     1  UNL1        0.1418
     16 C         139.9945  139.8784  168.4052 C.2     1  UNL1        0.3217
     17 O         139.3295  139.8468  169.7495 O.2     1  UNL1       -0.2497
     18 O         139.1714  140.0675  167.1656 O.3     1  UNL1       -0.4483
     19 C         138.3224  138.9433  166.6503 C.3     1  UNL1        0.2086
     20 C         138.6488  138.2985  165.3359 C.3     1  UNL1        0.0513
     21 C         143.6193  139.9936  163.5721 C.3     1  UNL1        0.1368
     22 C         142.6572  140.1456  162.4313 C.ar    1  UNL1        0.0005
     23 C         141.3397  139.4291  162.4608 C.ar    1  UNL1       -0.0024
     24 C         140.3777  139.5811  161.3200 C.ar    1  UNL1       -0.0003
     25 C         140.7332  140.4495  160.1497 C.ar    1  UNL1        0.0001
     26 C         142.0507  141.1659  160.1203 C.ar    1  UNL1       -0.0003
     27 C         143.0127  141.0140  161.2611 C.ar    1  UNL1       -0.0024
     28 C         139.7712  140.6014  159.0089 C.ar    1  UNL1        0.0030
     29 C         139.8508  139.6746  157.8322 C.ar    1  UNL1        0.0001
     30 C         138.8888  139.8265  156.6914 C.ar    1  UNL1        0.0000
     31 C         137.8471  140.9053  156.7273 C.ar    1  UNL1        0.0001
     32 C         137.7676  141.8322  157.9040 C.ar    1  UNL1        0.0031
     33 C         138.7296  141.6802  159.0448 C.ar    1  UNL1        0.0367
     34 C         138.6500  142.6071  160.2215 C.ar    1  UNL1        0.1761
     35 N         139.3421  143.9318  160.3487 N.ar    1  UNL1       -0.1970
     36 O         138.9842  144.5155  161.6835 O.2     1  UNL1       -0.3201
     37 C         138.0709  143.5514  162.3811 C.ar    1  UNL1        0.4607
     38 O         137.4698  143.7346  163.7430 O.2     1  UNL1       -0.2188
     39 N         137.8644  142.3720  161.4775 N.ar    1  UNL1       -0.1532
     40 H         139.9283  144.3455  159.6746 H       1  UNL1        0.2092
@<TRIPOS>BOND
     1    13    14    1
     2    14    12    1
     3    12    11    1
     4    11     1    1
     5     1     2   ar
     6     2     3   ar
     7     3     8    1
     8     8     9    1
     9     8    10    1
    10     3     4   ar
    11     4    15    1
    12    15    16    1
    13    16    17    2
    14    16    18    1
    15    18    19    1
    16    19    20    1
    17     4     5   ar
    18     5     6    2
    19     5     7   ar
    20     7    21    1
    21    21    22    1
    22    22    23   ar
    23    23    24   ar
    24    24    25   ar
    25    25    28    1
    26    28    29   ar
    27    29    30   ar
    28    30    31   ar
    29    31    32   ar
    30    32    33   ar
    31    33    34    1
    32    34    35   ar
    33    35    36   ar
    34    36    37   ar
    35    37    38    2
    36    37    39   ar
    37    25    26   ar
    38    26    27   ar
    39     7     1   ar
    40    27    22   ar
    41    33    28   ar
    42    39    34   ar
    43    35    40    1
@<TRIPOS>MOLECULE
*****
 40 43 0 0 0
SMALL
GASTEIGER

@<TRIPOS>ATOM
      1 C         141.3486  138.3743  160.6379 C.ar    1  UNL1        0.1223
      2 N         141.7189  139.0355  159.3434 N.ar    1  UNL1       -0.2368
      3 C         140.6828  139.7879  158.5622 C.ar    1  UNL1        0.0610
      4 C         139.2763  139.8790  159.0754 C.ar    1  UNL1        0.0587
      5 C         138.9060  139.2178  160.3698 C.ar    1  UNL1        0.2596
      6 O         137.4994  139.3089  160.8830 O.2     1  UNL1       -0.2672
      7 N         139.9421  138.4654  161.1510 N.ar    1  UNL1       -0.2801
      8 C         141.0532  140.4491  157.2677 C.3     1  UNL1        0.0402
      9 C         141.6621  141.8199  157.2730 C.3     1  UNL1        0.0063
     10 C         140.8147  139.7394  155.9679 C.3     1  UNL1        0.0063
     11 C         142.3847  137.6219  161.4191 C.3     1  UNL1        0.0640
     12 C         143.7156  138.2534  161.7022 C.3     1  UNL1        0.0079
     13 C         144.5212  139.6421  163.7448 C.3     1  UNL1        0.0000
     14 C         143.7852  139.5572  162.4405 C.3     1  UNL1        0.0005
     15 C         138.2402  140.6314  158.2941 C.3     1  UNL1        0.1418
     16 C         138.1622  142.1258  158.3967 C.2     1  UNL1        0.3217
     17 O         137.8849  142.9481  157.1732 O.2     1  UNL1       -0.2497
     18 O         138.3615  142.7980  159.7228 O.3     1  UNL1       -0.4483
     19 C         139.6872  143.4136  160.0599 C.3     1  UNL1        0.2086
     20 C         140.6592  142.6719  160.9288 C.3     1  UNL1        0.0513
     21 C         139.5717  137.8042  162.4455 C.3     1  UNL1        0.1368
     22 C         139.6554  138.5726  163.7311 C.ar    1  UNL1        0.0005
     23 C         140.9085  138.5232  164.5541 C.ar    1  UNL1       -0.0024
     24 C         140.9922  139.2916  165.8396 C.ar    1  UNL1       -0.0003
     25 C         139.8229  140.1094  166.3021 C.ar    1  UNL1        0.0001
     26 C         138.5699  140.1589  165.4790 C.ar    1  UNL1       -0.0003
     27 C         138.4861  139.3904  164.1935 C.ar    1  UNL1       -0.0024
     28 C         139.9066  140.8778  167.5876 C.ar    1  UNL1        0.0030
     29 C         139.5876  140.2013  168.8879 C.ar    1  UNL1        0.0001
     30 C         139.6714  140.9697  170.1734 C.ar    1  UNL1        0.0000
     31 C         140.0740  142.4146  170.1586 C.ar    1  UNL1        0.0001
     32 C         140.3930  143.0911  168.8584 C.ar    1  UNL1        0.0031
     33 C         140.3092  142.3227  167.5729 C.ar    1  UNL1        0.0367
     34 C         140.6282  142.9992  166.2726 C.ar    1  UNL1        0.1761
     35 N         141.9273  142.9102  165.5279 N.ar    1  UNL1       -0.1970
     36 O         141.8061  143.7395  164.2838 O.2     1  UNL1       -0.3201
     37 C         140.4321  144.3409  164.2596 C.ar    1  UNL1        0.4607
     38 O         139.8825  145.2416  163.1936 O.2     1  UNL1       -0.2188
     39 N         139.7041  143.8833  165.4888 N.ar    1  UNL1       -0.1532
     40 H         142.7202  142.3976  165.8068 H       1  UNL1        0.2092
@<TRIPOS>BOND
     1    13    14    1
     2    14    12    1
     3    12    11    1
     4    11     1    1
     5     1     2   ar
     6     2     3   ar
     7     3     8    1
     8     8     9    1
     9     8    10    1
    10     3     4   ar
    11     4    15    1
    12    15    16    1
    13    16    17    2
    14    16    18    1
    15    18    19    1
    16    19    20    1
    17     4     5   ar
    18     5     6    2
    19     5     7   ar
    20     7    21    1
    21    21    22    1
    22    22    23   ar
    23    23    24   ar
    24    24    25   ar
    25    25    28    1
    26    28    29   ar
    27    29    30   ar
    28    30    31   ar
    29    31    32   ar
    30    32    33   ar
    31    33    34    1
    32    34    35   ar
    33    35    36   ar
    34    36    37   ar
    35    37    38    2
    36    37    39   ar
    37    25    26   ar
    38    26    27   ar
    39     7     1   ar
    40    27    22   ar
    41    33    28   ar
    42    39    34   ar
    43    35    40    1
@<TRIPOS>MOLECULE
*****
 40 43 0 0 0
SMALL
GASTEIGER

@<TRIPOS>ATOM
      1 C         143.0722  139.3536  160.8716 C.ar    1  UNL1        0.1223
      2 N         142.2504  139.4470  159.6202 N.ar    1  UNL1       -0.2368
      3 C         142.2998  140.6896  158.7815 C.ar    1  UNL1        0.0610
      4 C         143.1709  141.8389  159.1941 C.ar    1  UNL1        0.0587
      5 C         143.9927  141.7455  160.4455 C.ar    1  UNL1        0.2596
      6 O         144.8639  142.8948  160.8581 O.2     1  UNL1       -0.2672
      7 N         143.9434  140.5029  161.2842 N.ar    1  UNL1       -0.2801
      8 C         141.4779  140.7829  157.5301 C.3     1  UNL1        0.0402
      9 C         140.0729  141.3045  157.5927 C.3     1  UNL1        0.0063
     10 C         142.0611  140.3547  156.2162 C.3     1  UNL1        0.0063
     11 C         143.0229  138.1110  161.7103 C.3     1  UNL1        0.0640
     12 C         141.7072  137.6017  162.2197 C.3     1  UNL1        0.0079
     13 C         140.3258  137.9620  164.3904 C.3     1  UNL1        0.0000
     14 C         140.8469  138.4775  163.0817 C.3     1  UNL1        0.0005
     15 C         143.2202  143.0815  158.3554 C.3     1  UNL1        0.1418
     16 C         142.3192  144.2376  158.6740 C.2     1  UNL1        0.3217
     17 O         142.5240  145.5581  157.9924 O.2     1  UNL1       -0.2497
     18 O         141.2134  144.0733  159.6740 O.3     1  UNL1       -0.4483
     19 C         141.3911  144.5724  161.0774 C.3     1  UNL1        0.2086
     20 C         141.2879  143.6192  162.2311 C.3     1  UNL1        0.0513
     21 C         144.7652  140.4096  162.5356 C.3     1  UNL1        0.1368
     22 C         144.1942  140.8702  163.8439 C.ar    1  UNL1        0.0005
     23 C         143.6154  139.8721  164.8025 C.ar    1  UNL1       -0.0024
     24 C         143.0444  140.3326  166.1109 C.ar    1  UNL1       -0.0003
     25 C         143.0522  141.7913  166.4607 C.ar    1  UNL1        0.0001
     26 C         143.6310  142.7893  165.5021 C.ar    1  UNL1       -0.0003
     27 C         144.2020  142.3288  164.1937 C.ar    1  UNL1       -0.0024
     28 C         142.4812  142.2519  167.7690 C.ar    1  UNL1        0.0030
     29 C         143.3721  142.3947  168.9674 C.ar    1  UNL1        0.0001
     30 C         142.8010  142.8553  170.2758 C.ar    1  UNL1        0.0000
     31 C         141.3392  143.1731  170.3857 C.ar    1  UNL1        0.0001
     32 C         140.4484  143.0303  169.1874 C.ar    1  UNL1        0.0031
     33 C         141.0194  142.5697  167.8790 C.ar    1  UNL1        0.0367
     34 C         140.1286  142.4269  166.6806 C.ar    1  UNL1        0.1761
     35 N         139.7377  143.5253  165.7368 N.ar    1  UNL1       -0.1970
     36 O         138.8398  142.9380  164.6885 O.2     1  UNL1       -0.3201
     37 C         138.6757  141.4766  164.9846 C.ar    1  UNL1        0.4607
     38 O         137.8586  140.5022  164.1892 O.2     1  UNL1       -0.2188
     39 N         139.4722  141.1608  166.2158 N.ar    1  UNL1       -0.1532
     40 H         140.0209  144.4664  165.7951 H       1  UNL1        0.2092
@<TRIPOS>BOND
     1    13    14    1
     2    14    12    1
     3    12    11    1
     4    11     1    1
     5     1     2   ar
     6     2     3   ar
     7     3     8    1
     8     8     9    1
     9     8    10    1
    10     3     4   ar
    11     4    15    1
    12    15    16    1
    13    16    17    2
    14    16    18    1
    15    18    19    1
    16    19    20    1
    17     4     5   ar
    18     5     6    2
    19     5     7   ar
    20     7    21    1
    21    21    22    1
    22    22    23   ar
    23    23    24   ar
    24    24    25   ar
    25    25    28    1
    26    28    29   ar
    27    29    30   ar
    28    30    31   ar
    29    31    32   ar
    30    32    33   ar
    31    33    34    1
    32    34    35   ar
    33    35    36   ar
    34    36    37   ar
    35    37    38    2
    36    37    39   ar
    37    25    26   ar
    38    26    27   ar
    39     7     1   ar
    40    27    22   ar
    41    33    28   ar
    42    39    34   ar
    43    35    40    1
@<TRIPOS>MOLECULE
*****
 40 43 0 0 0
SMALL
GASTEIGER

@<TRIPOS>ATOM
      1 C         144.2220  141.9698  161.4773 C.ar    1  UNL1        0.1223
      2 N         143.6084  142.3743  160.1697 N.ar    1  UNL1       -0.2368
      3 C         143.0001  141.3364  159.2737 C.ar    1  UNL1        0.0610
      4 C         143.0055  139.8940  159.6854 C.ar    1  UNL1        0.0587
      5 C         143.6191  139.4896  160.9930 C.ar    1  UNL1        0.2596
      6 O         143.6244  138.0471  161.4047 O.2     1  UNL1       -0.2672
      7 N         144.2273  140.5275  161.8889 N.ar    1  UNL1       -0.2801
      8 C         142.3865  141.7409  157.9661 C.3     1  UNL1        0.0402
      9 C         140.9461  142.1558  157.9100 C.3     1  UNL1        0.0063
     10 C         143.2133  141.7305  156.7146 C.3     1  UNL1        0.0063
     11 C         144.8303  143.0077  162.3733 C.3     1  UNL1        0.0640
     12 C         144.1995  144.3639  162.4861 C.3     1  UNL1        0.0079
     13 C         142.1034  144.8173  163.9528 C.3     1  UNL1        0.0000
     14 C         143.5941  144.8036  163.7862 C.3     1  UNL1        0.0005
     15 C         142.3972  138.8561  158.7894 C.3     1  UNL1        0.1418
     16 C         140.9256  138.5741  158.8595 C.2     1  UNL1        0.3217
     17 O         140.2536  137.8163  157.7530 O.2     1  UNL1       -0.2497
     18 O         140.1260  139.0500  160.0360 O.3     1  UNL1       -0.4483
     19 C         139.8603  138.1242  161.1860 C.3     1  UNL1        0.2086
     20 C         140.4018  138.4450  162.5476 C.3     1  UNL1        0.0513
     21 C         144.8410  140.1229  163.1966 C.3     1  UNL1        0.1368
     22 C         144.0098  140.1172  164.4452 C.ar    1  UNL1        0.0005
     23 C         143.7407  141.4010  165.1730 C.ar    1  UNL1       -0.0024
     24 C         142.9095  141.3952  166.4216 C.ar    1  UNL1       -0.0003
     25 C         142.3473  140.1057  166.9424 C.ar    1  UNL1        0.0001
     26 C         142.6163  138.8221  166.2146 C.ar    1  UNL1       -0.0003
     27 C         143.4476  138.8278  164.9660 C.ar    1  UNL1       -0.0024
     28 C         141.5161  140.1000  168.1910 C.ar    1  UNL1        0.0030
     29 C         142.1774  139.9757  169.5317 C.ar    1  UNL1        0.0001
     30 C         141.3461  139.9700  170.7803 C.ar    1  UNL1        0.0000
     31 C         139.8536  140.0885  170.6882 C.ar    1  UNL1        0.0001
     32 C         139.1924  140.2128  169.3476 C.ar    1  UNL1        0.0031
     33 C         140.0236  140.2186  168.0990 C.ar    1  UNL1        0.0367
     34 C         139.3623  140.3429  166.7583 C.ar    1  UNL1        0.1761
     35 N         138.6056  139.2619  166.0450 N.ar    1  UNL1       -0.1970
     36 O         138.1172  139.8209  164.7414 O.2     1  UNL1       -0.3201
     37 C         138.5722  141.2473  164.6493 C.ar    1  UNL1        0.4607
     38 O         138.3046  142.1862  163.5106 O.2     1  UNL1       -0.2188
     39 N         139.3417  141.5699  165.8958 N.ar    1  UNL1       -0.1532
     40 H         138.4558  138.3463  166.3745 H       1  UNL1        0.2092
@<TRIPOS>BOND
     1    13    14    1
     2    14    12    1
     3    12    11    1
     4    11     1    1
     5     1     2   ar
     6     2     3   ar
     7     3     8    1
     8     8     9    1
     9     8    10    1
    10     3     4   ar
    11     4    15    1
    12    15    16    1
    13    16    17    2
    14    16    18    1
    15    18    19    1
    16    19    20    1
    17     4     5   ar
    18     5     6    2
    19     5     7   ar
    20     7    21    1
    21    21    22    1
    22    22    23   ar
    23    23    24   ar
    24    24    25   ar
    25    25    28    1
    26    28    29   ar
    27    29    30   ar
    28    30    31   ar
    29    31    32   ar
    30    32    33   ar
    31    33    34    1
    32    34    35   ar
    33    35    36   ar
    34    36    37   ar
    35    37    38    2
    36    37    39   ar
    37    25    26   ar
    38    26    27   ar
    39     7     1   ar
    40    27    22   ar
    41    33    28   ar
    42    39    34   ar
    43    35    40    1
@<TRIPOS>MOLECULE
*****
 40 43 0 0 0
SMALL
GASTEIGER

@<TRIPOS>ATOM
      1 C         139.1894  144.2199  161.3015 C.ar    1  UNL1        0.1223
      2 N         139.8966  144.3143  159.9821 N.ar    1  UNL1       -0.2368
      3 C         139.8582  143.1590  159.0262 C.ar    1  UNL1        0.0610
      4 C         139.1125  141.9093  159.3896 C.ar    1  UNL1        0.0587
      5 C         138.4052  141.8149  160.7090 C.ar    1  UNL1        0.2596
      6 O         137.6595  140.5652  161.0725 O.2     1  UNL1       -0.2672
      7 N         138.4437  142.9702  161.6649 N.ar    1  UNL1       -0.2801
      8 C         140.5655  143.2535  157.7067 C.3     1  UNL1        0.0402
      9 C         141.9313  142.6555  157.5434 C.3     1  UNL1        0.0063
     10 C         139.9068  143.9460  156.5506 C.3     1  UNL1        0.0063
     11 C         139.2279  145.3751  162.2575 C.3     1  UNL1        0.0640
     12 C         140.5397  145.8476  162.8106 C.3     1  UNL1        0.0079
     13 C         142.7700  145.1164  163.9247 C.3     1  UNL1        0.0000
     14 C         141.7027  144.9038  162.8923 C.3     1  UNL1        0.0005
     15 C         139.0740  140.7541  158.4336 C.3     1  UNL1        0.1418
     16 C         138.0310  140.7061  157.3567 C.2     1  UNL1        0.3217
     17 O         137.9205  139.4993  156.4727 O.2     1  UNL1       -0.2497
     18 O         137.0984  141.8650  157.1637 O.3     1  UNL1       -0.4483
     19 C         136.5330  142.1544  155.8048 C.3     1  UNL1        0.2086
     20 C         136.6263  143.5380  155.2328 C.3     1  UNL1        0.0513
     21 C         137.7364  142.8757  162.9844 C.3     1  UNL1        0.1368
     22 C         138.4356  142.2774  164.1690 C.ar    1  UNL1        0.0005
     23 C         139.3676  143.1163  164.9923 C.ar    1  UNL1       -0.0024
     24 C         140.0668  142.5180  166.1768 C.ar    1  UNL1       -0.0003
     25 C         139.8339  141.0808  166.5381 C.ar    1  UNL1        0.0001
     26 C         138.9019  140.2421  165.7148 C.ar    1  UNL1       -0.0003
     27 C         138.2028  140.8403  164.5303 C.ar    1  UNL1       -0.0024
     28 C         140.5331  140.4825  167.7227 C.ar    1  UNL1        0.0030
     29 C         139.8986  140.5487  169.0803 C.ar    1  UNL1        0.0001
     30 C         140.5977  139.9504  170.2649 C.ar    1  UNL1        0.0000
     31 C         141.9314  139.2859  170.0918 C.ar    1  UNL1        0.0001
     32 C         142.5658  139.2198  168.7342 C.ar    1  UNL1        0.0031
     33 C         141.8667  139.8181  167.5497 C.ar    1  UNL1        0.0367
     34 C         142.5012  139.7519  166.1920 C.ar    1  UNL1        0.1761
     35 N         143.4123  140.7823  165.5936 N.ar    1  UNL1       -0.1970
     36 O         143.8102  140.3110  164.2262 O.2     1  UNL1       -0.3201
     37 C         143.1449  138.9893  163.9797 C.ar    1  UNL1        0.4607
     38 O         143.2672  138.1590  162.7365 O.2     1  UNL1       -0.2188
     39 N         142.3359  138.6438  165.1946 N.ar    1  UNL1       -0.1532
     40 H         143.6989  141.6207  166.0228 H       1  UNL1        0.2092
@<TRIPOS>BOND
     1    13    14    1
     2    14    12    1
     3    12    11    1
     4    11     1    1
     5     1     2   ar
     6     2     3   ar
     7     3     8    1
     8     8     9    1
     9     8    10    1
    10     3     4   ar
    11     4    15    1
    12    15    16    1
    13    16    17    2
    14    16    18    1
    15    18    19    1
    16    19    20    1
    17     4     5   ar
    18     5     6    2
    19     5     7   ar
    20     7    21    1
    21    21    22    1
    22    22    23   ar
    23    23    24   ar
    24    24    25   ar
    25    25    28    1
    26    28    29   ar
    27    29    30   ar
    28    30    31   ar
    29    31    32   ar
    30    32    33   ar
    31    33    34    1
    32    34    35   ar
    33    35    36   ar
    34    36    37   ar
    35    37    38    2
    36    37    39   ar
    37    25    26   ar
    38    26    27   ar
    39     7     1   ar
    40    27    22   ar
    41    33    28   ar
    42    39    34   ar
    43    35    40    1
