@<TRIPOS>MOLECULE
*****
 26 28 0 0 0
SMALL
GASTEIGER

@<TRIPOS>ATOM
      1 C         145.1969  140.2745  164.3540 C.3     1  UNL1        0.0427
      2 C         144.0083  139.4591  163.9391 C.3     1  UNL1        0.1973
      3 O         144.3731  139.6605  162.4982 O.3     1  UNL1       -0.3751
      4 H         143.7271  139.2068  161.9346 H       1  UNL1        0.2110
      5 C         143.6435  139.2578  165.3802 C.2     1  UNL1        0.2571
      6 O         143.9341  137.9483  166.0514 O.2     1  UNL1       -0.2719
      7 N         142.9881  140.3660  166.1498 N.am    1  UNL1       -0.2566
      8 C         142.6375  141.7231  165.6155 C.3     1  UNL1        0.1030
      9 C         142.0010  142.5075  166.7244 C.3     1  UNL1        0.0502
     10 C         141.9581  141.6352  167.9439 C.ar    1  UNL1        0.0029
     11 C         141.4424  141.8751  169.3319 C.ar    1  UNL1        0.0657
     12 C         141.5368  140.7915  170.3647 C.ar    1  UNL1        0.0100
     13 C         142.1469  139.4680  170.0096 C.ar    1  UNL1        0.0019
     14 C         142.6626  139.2281  168.6217 C.ar    1  UNL1        0.0146
     15 C         142.5682  140.3117  167.5888 C.ar    1  UNL1        0.0506
     16 C         140.8324  143.1986  169.6870 C.1     1  UNL1        0.1001
     17 N         140.2223  144.5222  170.0421 N.1     1  UNL1       -0.1908
     18 C         142.8196  138.6437  163.5243 C.3     1  UNL1        0.2408
     19 O         141.4914  139.3079  163.3127 O.3     1  UNL1       -0.4724
     20 C         140.3643  139.0524  164.2688 C.ar    1  UNL1        0.1388
     21 C         139.9828  137.6447  164.6195 C.ar    1  UNL1        0.0392
     22 C         138.8556  137.3891  165.5757 C.ar    1  UNL1        0.0327
     23 C         138.1099  138.5412  166.1811 C.ar    1  UNL1        0.1403
     24 F         136.9827  138.2856  167.1372 F       1  UNL1       -0.2042
     25 C         138.4914  139.9489  165.8304 C.ar    1  UNL1        0.0327
     26 C         139.6185  140.2045  164.8743 C.ar    1  UNL1        0.0392
@<TRIPOS>BOND
     1     2     1    1
     2     2     3    1
     3     2    18    1
     4    18    19    1
     5    19    20    1
     6    20    21   ar
     7    21    22   ar
     8    22    23   ar
     9    23    24    1
    10    23    25   ar
    11    25    26   ar
    12     2     5    1
    13     5     6    2
    14     5     7   am
    15     7     8    1
    16     8     9    1
    17     9    10    1
    18    10    11   ar
    19    11    16    1
    20    16    17    3
    21    11    12   ar
    22    12    13   ar
    23    13    14   ar
    24    14    15   ar
    25    26    20   ar
    26    15     7    1
    27    15    10   ar
    28     3     4    1
@<TRIPOS>MOLECULE
*****
 26 28 0 0 0
SMALL
GASTEIGER

@<TRIPOS>ATOM
      1 C         140.9732  136.9339  164.3020 C.3     1  UNL1        0.0427
      2 C         140.1751  138.0349  163.6689 C.3     1  UNL1        0.1973
      3 O         140.5438  137.5202  162.3091 O.3     1  UNL1       -0.3751
      4 H         140.1367  138.0805  161.6300 H       1  UNL1        0.2110
      5 C         139.8065  138.5497  165.0288 C.2     1  UNL1        0.2571
      6 O         138.4458  138.2683  165.5937 O.2     1  UNL1       -0.2719
      7 N         140.7986  139.3458  165.8237 N.am    1  UNL1       -0.2566
      8 C         142.1896  139.7047  165.3919 C.3     1  UNL1        0.1030
      9 C         142.8245  140.5035  166.4914 C.3     1  UNL1        0.0502
     10 C         141.8261  140.6382  167.6026 C.ar    1  UNL1        0.0029
     11 C         141.8953  141.3199  168.9369 C.ar    1  UNL1        0.0657
     12 C         140.7124  141.2862  169.8586 C.ar    1  UNL1        0.0100
     13 C         139.4603  140.5706  169.4460 C.ar    1  UNL1        0.0019
     14 C         139.3911  139.8889  168.1117 C.ar    1  UNL1        0.0146
     15 C         140.5740  139.9227  167.1900 C.ar    1  UNL1        0.0506
     16 C         143.1474  142.0355  169.3496 C.1     1  UNL1        0.1001
     17 N         144.3995  142.7510  169.7622 N.1     1  UNL1       -0.1908
     18 C         139.3771  139.1360  163.0358 C.3     1  UNL1        0.2408
     19 O         140.0279  140.4516  162.7265 O.3     1  UNL1       -0.4724
     20 C         139.6253  141.6835  163.4817 C.ar    1  UNL1        0.1388
     21 C         138.1731  141.9830  163.7085 C.ar    1  UNL1        0.0392
     22 C         137.7704  143.2149  164.4637 C.ar    1  UNL1        0.0327
     23 C         138.8199  144.1473  164.9920 C.ar    1  UNL1        0.1403
     24 F         138.4172  145.3792  165.7472 F       1  UNL1       -0.2042
     25 C         140.2721  143.8478  164.7651 C.ar    1  UNL1        0.0327
     26 C         140.6748  142.6159  164.0100 C.ar    1  UNL1        0.0392
@<TRIPOS>BOND
     1     2     1    1
     2     2     3    1
     3     2    18    1
     4    18    19    1
     5    19    20    1
     6    20    21   ar
     7    21    22   ar
     8    22    23   ar
     9    23    24    1
    10    23    25   ar
    11    25    26   ar
    12     2     5    1
    13     5     6    2
    14     5     7   am
    15     7     8    1
    16     8     9    1
    17     9    10    1
    18    10    11   ar
    19    11    16    1
    20    16    17    3
    21    11    12   ar
    22    12    13   ar
    23    13    14   ar
    24    14    15   ar
    25    26    20   ar
    26    15     7    1
    27    15    10   ar
    28     3     4    1
@<TRIPOS>MOLECULE
*****
 26 28 0 0 0
SMALL
GASTEIGER

@<TRIPOS>ATOM
      1 C         145.3212  141.5446  163.2547 C.3     1  UNL1        0.0427
      2 C         144.7103  142.9058  163.1003 C.3     1  UNL1        0.1973
      3 O         145.2891  143.0091  161.7204 O.3     1  UNL1       -0.3751
      4 H         145.0414  143.8612  161.3288 H       1  UNL1        0.2110
      5 C         144.1314  142.8025  164.4803 C.2     1  UNL1        0.2571
      6 O         144.7949  143.5067  165.6265 O.2     1  UNL1       -0.2719
      7 N         142.8891  141.9950  164.7141 N.am    1  UNL1       -0.2566
      8 C         142.1194  141.2397  163.6715 C.3     1  UNL1        0.1030
      9 C         140.9530  140.5789  164.3445 C.3     1  UNL1        0.0502
     10 C         141.0019  140.9258  165.8030 C.ar    1  UNL1        0.0029
     11 C         140.1114  140.5579  166.9526 C.ar    1  UNL1        0.0657
     12 C         140.4176  141.0652  168.3306 C.ar    1  UNL1        0.0100
     13 C         141.6142  141.9404  168.5590 C.ar    1  UNL1        0.0019
     14 C         142.5046  142.3083  167.4094 C.ar    1  UNL1        0.0146
     15 C         142.1985  141.8011  166.0314 C.ar    1  UNL1        0.0506
     16 C         138.9149  139.6827  166.7242 C.1     1  UNL1        0.1001
     17 N         137.7183  138.8075  166.4958 N.1     1  UNL1       -0.1908
     18 C         144.0993  144.2670  162.9460 C.3     1  UNL1        0.2408
     19 O         143.0281  144.4965  161.9214 O.3     1  UNL1       -0.4724
     20 C         141.5835  144.4426  162.3217 C.ar    1  UNL1        0.1388
     21 C         141.1625  144.9264  163.6777 C.ar    1  UNL1        0.0392
     22 C         139.7178  144.8726  164.0780 C.ar    1  UNL1        0.0327
     23 C         138.6943  144.3350  163.1224 C.ar    1  UNL1        0.1403
     24 F         137.2497  144.2811  163.5228 F       1  UNL1       -0.2042
     25 C         139.1154  143.8512  161.7664 C.ar    1  UNL1        0.0327
     26 C         140.5599  143.9050  161.3660 C.ar    1  UNL1        0.0392
@<TRIPOS>BOND
     1     2     1    1
     2     2     3    1
     3     2    18    1
     4    18    19    1
     5    19    20    1
     6    20    21   ar
     7    21    22   ar
     8    22    23   ar
     9    23    24    1
    10    23    25   ar
    11    25    26   ar
    12     2     5    1
    13     5     6    2
    14     5     7   am
    15     7     8    1
    16     8     9    1
    17     9    10    1
    18    10    11   ar
    19    11    16    1
    20    16    17    3
    21    11    12   ar
    22    12    13   ar
    23    13    14   ar
    24    14    15   ar
    25    26    20   ar
    26    15     7    1
    27    15    10   ar
    28     3     4    1
@<TRIPOS>MOLECULE
*****
 26 28 0 0 0
SMALL
GASTEIGER

@<TRIPOS>ATOM
      1 C         139.7157  137.9926  161.9477 C.3     1  UNL1        0.0427
      2 C         140.1362  139.4214  161.7704 C.3     1  UNL1        0.1973
      3 O         139.3031  139.5123  160.5264 O.3     1  UNL1       -0.3751
      4 H         139.3800  140.4030  160.1501 H       1  UNL1        0.2110
      5 C         140.9694  139.3305  163.0145 C.2     1  UNL1        0.2571
      6 O         142.4184  138.9546  162.9209 O.2     1  UNL1       -0.2719
      7 N         140.3534  139.6156  164.3521 N.am    1  UNL1       -0.2566
      8 C         138.9253  140.0013  164.6010 C.3     1  UNL1        0.1030
      9 C         138.7467  140.1891  166.0784 C.3     1  UNL1        0.0502
     10 C         140.0643  139.9195  166.7427 C.ar    1  UNL1        0.0029
     11 C         140.4882  139.9510  168.1812 C.ar    1  UNL1        0.0657
     12 C         141.9050  139.6281  168.5527 C.ar    1  UNL1        0.0100
     13 C         142.8981  139.2737  167.4858 C.ar    1  UNL1        0.0019
     14 C         142.4742  139.2422  166.0473 C.ar    1  UNL1        0.0146
     15 C         141.0573  139.5651  165.6757 C.ar    1  UNL1        0.0506
     16 C         139.4951  140.3055  169.2481 C.1     1  UNL1        0.1001
     17 N         138.5021  140.6599  170.3150 N.1     1  UNL1       -0.1908
     18 C         140.5569  140.8503  161.5931 C.3     1  UNL1        0.2408
     19 O         139.5212  141.9319  161.5079 O.3     1  UNL1       -0.4724
     20 C         139.2521  142.8079  162.6955 C.ar    1  UNL1        0.1388
     21 C         140.3878  143.2685  163.5603 C.ar    1  UNL1        0.0392
     22 C         140.1188  144.1446  164.7479 C.ar    1  UNL1        0.0327
     23 C         138.7141  144.5599  165.0706 C.ar    1  UNL1        0.1403
     24 F         138.4451  145.4359  166.2582 F       1  UNL1       -0.2042
     25 C         137.5783  144.0992  164.2057 C.ar    1  UNL1        0.0327
     26 C         137.8473  143.2233  163.0182 C.ar    1  UNL1        0.0392
@<TRIPOS>BOND
     1     2     1    1
     2     2     3    1
     3     2    18    1
     4    18    19    1
     5    19    20    1
     6    20    21   ar
     7    21    22   ar
     8    22    23   ar
     9    23    24    1
    10    23    25   ar
    11    25    26   ar
    12     2     5    1
    13     5     6    2
    14     5     7   am
    15     7     8    1
    16     8     9    1
    17     9    10    1
    18    10    11   ar
    19    11    16    1
    20    16    17    3
    21    11    12   ar
    22    12    13   ar
    23    13    14   ar
    24    14    15   ar
    25    26    20   ar
    26    15     7    1
    27    15    10   ar
    28     3     4    1
@<TRIPOS>MOLECULE
*****
 26 28 0 0 0
SMALL
GASTEIGER

@<TRIPOS>ATOM
      1 C         138.1124  144.5478  162.9308 C.3     1  UNL1        0.0427
      2 C         139.1016  143.7194  162.1659 C.3     1  UNL1        0.1973
      3 O         139.4522  144.9126  161.3272 O.3     1  UNL1       -0.3751
      4 H         140.1309  144.6647  160.6800 H       1  UNL1        0.2110
      5 C         138.7510  142.5262  163.0047 C.2     1  UNL1        0.2571
      6 O         137.8457  141.4636  162.4558 O.2     1  UNL1       -0.2719
      7 N         139.3056  142.3958  164.3922 N.am    1  UNL1       -0.2566
      8 C         140.2183  143.3727  165.0724 C.3     1  UNL1        0.1030
      9 C         140.5217  142.8461  166.4438 C.3     1  UNL1        0.0502
     10 C         139.7966  141.5437  166.6112 C.ar    1  UNL1        0.0029
     11 C         139.7236  140.5753  167.7543 C.ar    1  UNL1        0.0657
     12 C         138.8990  139.3286  167.6295 C.ar    1  UNL1        0.0100
     13 C         138.1474  139.0502  166.3616 C.ar    1  UNL1        0.0019
     14 C         138.2204  140.0186  165.2184 C.ar    1  UNL1        0.0146
     15 C         139.0450  141.2654  165.3432 C.ar    1  UNL1        0.0506
     16 C         140.4751  140.8537  169.0222 C.1     1  UNL1        0.1001
     17 N         141.2267  141.1321  170.2902 N.1     1  UNL1       -0.1908
     18 C         140.0908  142.8910  161.4010 C.3     1  UNL1        0.2408
     19 O         141.4959  143.3822  161.2154 O.3     1  UNL1       -0.4724
     20 C         142.4030  143.5258  162.4013 C.ar    1  UNL1        0.1388
     21 C         142.7493  144.8901  162.9198 C.ar    1  UNL1        0.0392
     22 C         143.6565  145.0338  164.1058 C.ar    1  UNL1        0.0327
     23 C         144.2174  143.8132  164.7732 C.ar    1  UNL1        0.1403
     24 F         145.1245  143.9569  165.9592 F       1  UNL1       -0.2042
     25 C         143.8710  142.4489  164.2547 C.ar    1  UNL1        0.0327
     26 C         142.9639  142.3052  163.0688 C.ar    1  UNL1        0.0392
@<TRIPOS>BOND
     1     2     1    1
     2     2     3    1
     3     2    18    1
     4    18    19    1
     5    19    20    1
     6    20    21   ar
     7    21    22   ar
     8    22    23   ar
     9    23    24    1
    10    23    25   ar
    11    25    26   ar
    12     2     5    1
    13     5     6    2
    14     5     7   am
    15     7     8    1
    16     8     9    1
    17     9    10    1
    18    10    11   ar
    19    11    16    1
    20    16    17    3
    21    11    12   ar
    22    12    13   ar
    23    13    14   ar
    24    14    15   ar
    25    26    20   ar
    26    15     7    1
    27    15    10   ar
    28     3     4    1
@<TRIPOS>MOLECULE
*****
 26 28 0 0 0
SMALL
GASTEIGER

@<TRIPOS>ATOM
      1 C         140.5133  143.3086  169.6938 C.3     1  UNL1        0.0427
      2 C         140.3848  141.8741  169.2748 C.3     1  UNL1        0.1973
      3 O         139.2318  141.7018  170.2186 O.3     1  UNL1       -0.3751
      4 H         138.9049  140.7900  170.1666 H       1  UNL1        0.2110
      5 C         141.5379  142.0466  168.3310 C.2     1  UNL1        0.2571
      6 O         142.9203  141.6477  168.7551 O.2     1  UNL1       -0.2719
      7 N         141.3086  142.6178  166.9631 N.am    1  UNL1       -0.2566
      8 C         139.9894  143.0594  166.4019 C.3     1  UNL1        0.1030
      9 C         140.2237  143.5623  165.0083 C.3     1  UNL1        0.0502
     10 C         141.6875  143.4316  164.7082 C.ar    1  UNL1        0.0029
     11 C         142.4966  143.7686  163.4909 C.ar    1  UNL1        0.0657
     12 C         143.9761  143.5220  163.4818 C.ar    1  UNL1        0.0100
     13 C         144.6466  142.9383  164.6900 C.ar    1  UNL1        0.0019
     14 C         143.8376  142.6012  165.9073 C.ar    1  UNL1        0.0146
     15 C         142.3580  142.8478  165.9164 C.ar    1  UNL1        0.0506
     16 C         141.8261  144.3523  162.2827 C.1     1  UNL1        0.1001
     17 N         141.1556  144.9360  161.0745 N.1     1  UNL1       -0.1908
     18 C         140.2564  140.4396  168.8558 C.3     1  UNL1        0.2408
     19 O         139.1796  140.0327  167.8941 O.3     1  UNL1       -0.4724
     20 C         139.5336  139.2772  166.6476 C.ar    1  UNL1        0.1388
     21 C         140.9410  139.3028  166.1293 C.ar    1  UNL1        0.0392
     22 C         141.2950  138.5472  164.8827 C.ar    1  UNL1        0.0327
     23 C         140.2417  137.7661  164.1544 C.ar    1  UNL1        0.1403
     24 F         140.5957  137.0106  162.9079 F       1  UNL1       -0.2042
     25 C         138.8343  137.7406  164.6728 C.ar    1  UNL1        0.0327
     26 C         138.4802  138.4961  165.9193 C.ar    1  UNL1        0.0392
@<TRIPOS>BOND
     1     2     1    1
     2     2     3    1
     3     2    18    1
     4    18    19    1
     5    19    20    1
     6    20    21   ar
     7    21    22   ar
     8    22    23   ar
     9    23    24    1
    10    23    25   ar
    11    25    26   ar
    12     2     5    1
    13     5     6    2
    14     5     7   am
    15     7     8    1
    16     8     9    1
    17     9    10    1
    18    10    11   ar
    19    11    16    1
    20    16    17    3
    21    11    12   ar
    22    12    13   ar
    23    13    14   ar
    24    14    15   ar
    25    26    20   ar
    26    15     7    1
    27    15    10   ar
    28     3     4    1
@<TRIPOS>MOLECULE
*****
 26 28 0 0 0
SMALL
GASTEIGER

@<TRIPOS>ATOM
      1 C         139.4595  145.1804  163.1444 C.3     1  UNL1        0.0427
      2 C         140.4169  144.2591  162.4482 C.3     1  UNL1        0.1973
      3 O         141.1133  145.4410  161.8417 O.3     1  UNL1       -0.3751
      4 H         141.8471  145.1341  161.2865 H       1  UNL1        0.2110
      5 C         139.7204  143.0771  163.0549 C.2     1  UNL1        0.2571
      6 O         138.6409  142.3694  162.2910 O.2     1  UNL1       -0.2719
      7 N         140.1034  142.6030  164.4255 N.am    1  UNL1       -0.2566
      8 C         141.1581  143.2070  165.3046 C.3     1  UNL1        0.1030
      9 C         141.2056  142.4189  166.5800 C.3     1  UNL1        0.0502
     10 C         140.1802  141.3279  166.4892 C.ar    1  UNL1        0.0029
     11 C         139.7787  140.2456  167.4469 C.ar    1  UNL1        0.0657
     12 C         138.6962  139.2770  167.0731 C.ar    1  UNL1        0.0100
     13 C         138.0150  139.3908  165.7415 C.ar    1  UNL1        0.0019
     14 C         138.4164  140.4731  164.7838 C.ar    1  UNL1        0.0146
     15 C         139.4990  141.4417  165.1576 C.ar    1  UNL1        0.0506
     16 C         140.4599  140.1318  168.7785 C.1     1  UNL1        0.1001
     17 N         141.1411  140.0180  170.1100 N.1     1  UNL1       -0.1908
     18 C         141.3742  143.3377  161.7522 C.3     1  UNL1        0.2408
     19 O         142.8460  143.4422  162.0219 O.3     1  UNL1       -0.4724
     20 C         143.5635  142.3206  162.7127 C.ar    1  UNL1        0.1388
     21 C         142.8855  140.9947  162.8924 C.ar    1  UNL1        0.0392
     22 C         143.6029  139.8730  163.5832 C.ar    1  UNL1        0.0327
     23 C         144.9983  140.0773  164.0943 C.ar    1  UNL1        0.1403
     24 F         145.7157  138.9556  164.7851 F       1  UNL1       -0.2042
     25 C         145.6762  141.4032  163.9146 C.ar    1  UNL1        0.0327
     26 C         144.9588  142.5249  163.2238 C.ar    1  UNL1        0.0392
@<TRIPOS>BOND
     1     2     1    1
     2     2     3    1
     3     2    18    1
     4    18    19    1
     5    19    20    1
     6    20    21   ar
     7    21    22   ar
     8    22    23   ar
     9    23    24    1
    10    23    25   ar
    11    25    26   ar
    12     2     5    1
    13     5     6    2
    14     5     7   am
    15     7     8    1
    16     8     9    1
    17     9    10    1
    18    10    11   ar
    19    11    16    1
    20    16    17    3
    21    11    12   ar
    22    12    13   ar
    23    13    14   ar
    24    14    15   ar
    25    26    20   ar
    26    15     7    1
    27    15    10   ar
    28     3     4    1
@<TRIPOS>MOLECULE
*****
 26 28 0 0 0
SMALL
GASTEIGER

@<TRIPOS>ATOM
      1 C         144.8882  139.6511  164.0556 C.3     1  UNL1        0.0427
      2 C         144.2394  140.7754  163.3040 C.3     1  UNL1        0.1973
      3 O         145.5904  141.3516  162.9997 O.3     1  UNL1       -0.3751
      4 H         145.4861  142.1613  162.4759 H       1  UNL1        0.2110
      5 C         142.8883  140.1991  163.6083 C.2     1  UNL1        0.2571
      6 O         142.1360  139.4510  162.5480 O.2     1  UNL1       -0.2719
      7 N         142.2896  140.3710  164.9729 N.am    1  UNL1       -0.2566
      8 C         142.9202  141.0906  166.1281 C.3     1  UNL1        0.1030
      9 C         141.9756  141.0177  167.2910 C.3     1  UNL1        0.0502
     10 C         140.7612  140.2531  166.8545 C.ar    1  UNL1        0.0029
     11 C         139.5037  139.8692  167.5765 C.ar    1  UNL1        0.0657
     12 C         138.4403  139.0855  166.8658 C.ar    1  UNL1        0.0100
     13 C         138.6344  138.6858  165.4332 C.ar    1  UNL1        0.0019
     14 C         139.8919  139.0697  164.7112 C.ar    1  UNL1        0.0146
     15 C         140.9553  139.8533  165.4218 C.ar    1  UNL1        0.0506
     16 C         139.3096  140.2689  169.0092 C.1     1  UNL1        0.1001
     17 N         139.1155  140.6686  170.4418 N.1     1  UNL1       -0.1908
     18 C         143.5905  141.8997  162.5524 C.3     1  UNL1        0.2408
     19 O         143.1006  143.1105  163.2899 O.3     1  UNL1       -0.4724
     20 C         141.6518  143.4935  163.2242 C.ar    1  UNL1        0.1388
     21 C         141.0051  143.7567  161.8966 C.ar    1  UNL1        0.0392
     22 C         139.5563  144.1397  161.8308 C.ar    1  UNL1        0.0327
     23 C         138.7541  144.2594  163.0927 C.ar    1  UNL1        0.1403
     24 F         137.3054  144.6424  163.0269 F       1  UNL1       -0.2042
     25 C         139.4009  143.9961  164.4203 C.ar    1  UNL1        0.0327
     26 C         140.8497  143.6132  164.4860 C.ar    1  UNL1        0.0392
@<TRIPOS>BOND
     1     2     1    1
     2     2     3    1
     3     2    18    1
     4    18    19    1
     5    19    20    1
     6    20    21   ar
     7    21    22   ar
     8    22    23   ar
     9    23    24    1
    10    23    25   ar
    11    25    26   ar
    12     2     5    1
    13     5     6    2
    14     5     7   am
    15     7     8    1
    16     8     9    1
    17     9    10    1
    18    10    11   ar
    19    11    16    1
    20    16    17    3
    21    11    12   ar
    22    12    13   ar
    23    13    14   ar
    24    14    15   ar
    25    26    20   ar
    26    15     7    1
    27    15    10   ar
    28     3     4    1
@<TRIPOS>MOLECULE
*****
 26 28 0 0 0
SMALL
GASTEIGER

@<TRIPOS>ATOM
      1 C         143.0579  138.7365  164.0075 C.3     1  UNL1        0.0427
      2 C         142.6159  139.0223  165.4120 C.3     1  UNL1        0.1973
      3 O         143.9396  138.5398  165.9267 O.3     1  UNL1       -0.3751
      4 H         143.9555  138.6101  166.8941 H       1  UNL1        0.2110
      5 C         141.2921  139.5049  164.8972 C.2     1  UNL1        0.2571
      6 O         140.0963  138.6005  164.9395 O.2     1  UNL1       -0.2719
      7 N         141.1644  140.8917  164.3402 N.am    1  UNL1       -0.2566
      8 C         142.2663  141.9039  164.2335 C.3     1  UNL1        0.1030
      9 C         141.6952  143.1476  163.6194 C.3     1  UNL1        0.0502
     10 C         140.2405  142.9041  163.3466 C.ar    1  UNL1        0.0029
     11 C         139.1722  143.7717  162.7501 C.ar    1  UNL1        0.0657
     12 C         137.7758  143.2451  162.5991 C.ar    1  UNL1        0.0100
     13 C         137.4478  141.8509  163.0446 C.ar    1  UNL1        0.0019
     14 C         138.5161  140.9832  163.6410 C.ar    1  UNL1        0.0146
     15 C         139.9124  141.5098  163.7921 C.ar    1  UNL1        0.0506
     16 C         139.5002  145.1660  162.3046 C.1     1  UNL1        0.1001
     17 N         139.8283  146.5602  161.8591 N.1     1  UNL1       -0.1908
     18 C         142.1738  139.3082  166.8166 C.3     1  UNL1        0.2408
     19 O         142.9690  140.2447  167.6772 O.3     1  UNL1       -0.4724
     20 C         142.2932  141.4040  168.3474 C.ar    1  UNL1        0.1388
     21 C         140.9687  141.8944  167.8420 C.ar    1  UNL1        0.0392
     22 C         140.2928  143.0538  168.5121 C.ar    1  UNL1        0.0327
     23 C         140.9413  143.7227  169.6877 C.ar    1  UNL1        0.1403
     24 F         140.2654  144.8820  170.3578 F       1  UNL1       -0.2042
     25 C         142.2657  143.2322  170.1931 C.ar    1  UNL1        0.0327
     26 C         142.9417  142.0729  169.5229 C.ar    1  UNL1        0.0392
@<TRIPOS>BOND
     1     2     1    1
     2     2     3    1
     3     2    18    1
     4    18    19    1
     5    19    20    1
     6    20    21   ar
     7    21    22   ar
     8    22    23   ar
     9    23    24    1
    10    23    25   ar
    11    25    26   ar
    12     2     5    1
    13     5     6    2
    14     5     7   am
    15     7     8    1
    16     8     9    1
    17     9    10    1
    18    10    11   ar
    19    11    16    1
    20    16    17    3
    21    11    12   ar
    22    12    13   ar
    23    13    14   ar
    24    14    15   ar
    25    26    20   ar
    26    15     7    1
    27    15    10   ar
    28     3     4    1
