@<TRIPOS>MOLECULE
*****
 30 32 0 0 0
SMALL
GASTEIGER

@<TRIPOS>ATOM
      1 O         142.4354  138.3833  165.7433 O.3     1  UNL1       -0.4776
      2 C         142.7438  140.8991  168.7970 C.ar    1  UNL1       -0.0191
      3 C         142.4747  139.6500  168.0112 C.ar    1  UNL1        0.0342
      4 C         142.7044  139.6323  166.5291 C.ar    1  UNL1        0.1555
      5 C         143.2033  140.8637  165.8326 C.ar    1  UNL1        0.1151
      6 N         143.4330  140.8460  164.3505 N.ar    1  UNL1       -0.2408
      7 C         143.9318  142.0773  163.6541 C.ar    1  UNL1        0.0989
      8 C         144.2008  143.3263  164.4399 C.ar    1  UNL1        0.0207
      9 C         143.9711  143.3441  165.9221 C.ar    1  UNL1        0.0032
     10 C         143.4723  142.1127  166.6184 C.ar    1  UNL1        0.0204
     11 C         143.2426  142.1304  168.1007 C.ar    1  UNL1       -0.0026
     12 C         142.5141  140.9167  170.2793 C.3     1  UNL1        0.0265
     13 C         141.9309  142.1341  170.9334 C.3     1  UNL1        0.0047
     14 C         140.3540  143.8435  169.7752 C.3     1  UNL1        0.0000
     15 C         140.5474  142.5886  170.5739 C.3     1  UNL1        0.0003
     16 C         141.3194  138.3532  164.7415 C.3     1  UNL1        0.1688
     17 C         141.5649  137.8202  163.3610 C.3     1  UNL1        0.0609
     18 C         140.4490  137.7902  162.3591 C.3     1  UNL1        0.0758
     19 N         139.0875  138.2932  162.7377 N.3     1  UNL1       -0.2724
     20 C         138.8419  138.8262  164.1181 C.3     1  UNL1        0.0758
     21 C         139.9579  138.8563  165.1200 C.3     1  UNL1        0.0609
     22 C         137.9715  138.2632  161.7359 C.3     1  UNL1        0.0739
     23 C         137.4135  139.5467  161.1961 C.3     1  UNL1        0.0426
     24 C         138.3081  140.7374  161.0182 C.3     1  UNL1        0.1523
     25 S         138.0785  141.9763  161.8320 S.O2    1  UNL1       -0.0100
     26 O         139.2333  142.6421  161.1444 O.2     1  UNL1       -0.1730
     27 O         136.9236  141.3104  162.5197 O.2     1  UNL1       -0.1730
     28 C         137.8488  143.2152  162.6460 C.3     1  UNL1        0.1508
     29 C         138.0624  143.1876  164.1304 C.3     1  UNL1        0.0253
     30 C         138.3093  144.4652  164.8765 C.3     1  UNL1        0.0019
@<TRIPOS>BOND
     1    14    15    1
     2    15    13    1
     3    13    12    1
     4    12     2    1
     5     2     3   ar
     6     3     4   ar
     7     4     1    1
     8     1    16    1
     9    16    17    1
    10    17    18    1
    11    18    19    1
    12    19    22    1
    13    22    23    1
    14    23    24    1
    15    24    25    1
    16    25    26    2
    17    25    27    2
    18    25    28    1
    19    28    29    1
    20    29    30    1
    21    19    20    1
    22    20    21    1
    23     4     5   ar
    24     5     6   ar
    25     6     7   ar
    26     7     8   ar
    27     8     9   ar
    28     9    10   ar
    29    10    11   ar
    30    11     2   ar
    31    21    16    1
    32    10     5   ar
@<TRIPOS>MOLECULE
*****
 30 32 0 0 0
SMALL
GASTEIGER

@<TRIPOS>ATOM
      1 O         139.8803  139.0511  166.1836 O.3     1  UNL1       -0.4776
      2 C         142.9503  141.5656  166.1419 C.ar    1  UNL1       -0.0191
      3 C         141.9033  140.5991  165.6731 C.ar    1  UNL1        0.0342
      4 C         140.9272  140.0176  166.6524 C.ar    1  UNL1        0.1555
      5 C         140.9981  140.4025  168.1005 C.ar    1  UNL1        0.1151
      6 N         140.0220  139.8209  169.0797 N.ar    1  UNL1       -0.2408
      7 C         140.0928  140.2058  170.5277 C.ar    1  UNL1        0.0989
      8 C         141.1398  141.1723  170.9965 C.ar    1  UNL1        0.0207
      9 C         142.1159  141.7539  170.0172 C.ar    1  UNL1        0.0032
     10 C         142.0450  141.3690  168.5692 C.ar    1  UNL1        0.0204
     11 C         143.0212  141.9505  167.5899 C.ar    1  UNL1       -0.0026
     12 C         143.9264  142.1472  165.1626 C.3     1  UNL1        0.0265
     13 C         144.3959  143.5628  165.3224 C.3     1  UNL1        0.0047
     14 C         143.9358  144.3781  162.8989 C.3     1  UNL1        0.0000
     15 C         143.9136  144.6241  164.3784 C.3     1  UNL1        0.0003
     16 C         139.2668  139.2109  164.8242 C.3     1  UNL1        0.1688
     17 C         138.2934  140.3229  164.5666 C.3     1  UNL1        0.0609
     18 C         137.6800  140.4827  163.2072 C.3     1  UNL1        0.0758
     19 N         138.0398  139.5307  162.1053 N.3     1  UNL1       -0.2724
     20 C         139.0131  138.4189  162.3628 C.3     1  UNL1        0.0758
     21 C         139.6266  138.2589  163.7223 C.3     1  UNL1        0.0609
     22 C         137.4264  139.6906  160.7459 C.3     1  UNL1        0.0739
     23 C         138.2445  140.2366  159.6133 C.3     1  UNL1        0.0426
     24 C         138.4322  141.7178  159.4696 C.3     1  UNL1        0.1523
     25 S         139.3749  142.4462  160.3811 S.O2    1  UNL1       -0.0100
     26 O         140.5257  141.6728  159.8090 O.2     1  UNL1       -0.1730
     27 O         138.2240  143.2195  160.9533 O.2     1  UNL1       -0.1730
     28 C         140.3175  143.1746  161.2927 C.3     1  UNL1        0.1508
     29 C         140.6173  142.6251  162.6559 C.3     1  UNL1        0.0253
     30 C         140.3672  143.4636  163.8742 C.3     1  UNL1        0.0019
@<TRIPOS>BOND
     1    14    15    1
     2    15    13    1
     3    13    12    1
     4    12     2    1
     5     2     3   ar
     6     3     4   ar
     7     4     1    1
     8     1    16    1
     9    16    17    1
    10    17    18    1
    11    18    19    1
    12    19    22    1
    13    22    23    1
    14    23    24    1
    15    24    25    1
    16    25    26    2
    17    25    27    2
    18    25    28    1
    19    28    29    1
    20    29    30    1
    21    19    20    1
    22    20    21    1
    23     4     5   ar
    24     5     6   ar
    25     6     7   ar
    26     7     8   ar
    27     8     9   ar
    28     9    10   ar
    29    10    11   ar
    30    11     2   ar
    31    21    16    1
    32    10     5   ar
@<TRIPOS>MOLECULE
*****
 30 32 0 0 0
SMALL
GASTEIGER

@<TRIPOS>ATOM
      1 O         143.3526  139.3476  166.2621 O.3     1  UNL1       -0.4776
      2 C         139.3952  139.5423  166.4893 C.ar    1  UNL1       -0.0191
      3 C         140.7756  139.3574  165.9321 C.ar    1  UNL1        0.0342
      4 C         141.9722  139.5325  166.8193 C.ar    1  UNL1        0.1555
      5 C         141.7886  139.8926  168.2639 C.ar    1  UNL1        0.1151
      6 N         142.9852  140.0678  169.1512 N.ar    1  UNL1       -0.2408
      7 C         142.8015  140.4279  170.5956 C.ar    1  UNL1        0.0989
      8 C         141.4212  140.6128  171.1528 C.ar    1  UNL1        0.0207
      9 C         140.2246  140.4377  170.2656 C.ar    1  UNL1        0.0032
     10 C         140.4082  140.0776  168.8211 C.ar    1  UNL1        0.0204
     11 C         139.2116  139.9024  167.9337 C.ar    1  UNL1       -0.0026
     12 C         138.1986  139.3671  165.6019 C.3     1  UNL1        0.0265
     13 C         138.1520  140.0427  164.2635 C.3     1  UNL1        0.0047
     14 C         138.8128  137.8121  163.1069 C.3     1  UNL1        0.0000
     15 C         138.3902  139.2484  163.0137 C.3     1  UNL1        0.0003
     16 C         143.7471  140.0393  164.9910 C.3     1  UNL1        0.1688
     17 C         143.9837  141.5206  164.9854 C.3     1  UNL1        0.0609
     18 C         144.3782  142.2122  163.7142 C.3     1  UNL1        0.0758
     19 N         144.5363  141.4227  162.4486 N.3     1  UNL1       -0.2724
     20 C         144.2997  139.9415  162.4542 C.3     1  UNL1        0.0758
     21 C         143.9052  139.2498  163.7254 C.3     1  UNL1        0.0609
     22 C         144.9308  142.1144  161.1775 C.3     1  UNL1        0.0739
     23 C         143.9409  142.9808  160.4566 C.3     1  UNL1        0.0426
     24 C         142.4725  142.6972  160.5715 C.3     1  UNL1        0.1523
     25 S         141.5873  143.6279  161.3462 S.O2    1  UNL1       -0.0100
     26 O         141.9949  144.7605  160.4512 O.2     1  UNL1       -0.1730
     27 O         141.1797  142.4954  162.2412 O.2     1  UNL1       -0.1730
     28 C         140.7021  144.5587  162.1209 C.3     1  UNL1        0.1508
     29 C         141.0702  144.9522  163.5208 C.3     1  UNL1        0.0253
     30 C         142.4823  145.3415  163.8437 C.3     1  UNL1        0.0019
@<TRIPOS>BOND
     1    14    15    1
     2    15    13    1
     3    13    12    1
     4    12     2    1
     5     2     3   ar
     6     3     4   ar
     7     4     1    1
     8     1    16    1
     9    16    17    1
    10    17    18    1
    11    18    19    1
    12    19    22    1
    13    22    23    1
    14    23    24    1
    15    24    25    1
    16    25    26    2
    17    25    27    2
    18    25    28    1
    19    28    29    1
    20    29    30    1
    21    19    20    1
    22    20    21    1
    23     4     5   ar
    24     5     6   ar
    25     6     7   ar
    26     7     8   ar
    27     8     9   ar
    28     9    10   ar
    29    10    11   ar
    30    11     2   ar
    31    21    16    1
    32    10     5   ar
@<TRIPOS>MOLECULE
*****
 30 32 0 0 0
SMALL
GASTEIGER

@<TRIPOS>ATOM
      1 O         142.7590  141.3983  166.0309 O.3     1  UNL1       -0.4776
      2 C         139.3404  139.5065  166.7265 C.ar    1  UNL1       -0.0191
      3 C         140.5671  140.0035  166.0208 C.ar    1  UNL1        0.0342
      4 C         141.5322  140.9013  166.7366 C.ar    1  UNL1        0.1555
      5 C         141.2707  141.3020  168.1583 C.ar    1  UNL1        0.1151
      6 N         142.2358  142.1998  168.8741 N.ar    1  UNL1       -0.2408
      7 C         141.9743  142.6005  170.2957 C.ar    1  UNL1        0.0989
      8 C         140.7476  142.1034  171.0015 C.ar    1  UNL1        0.0207
      9 C         139.7824  141.2057  170.2857 C.ar    1  UNL1        0.0032
     10 C         140.0440  140.8050  168.8641 C.ar    1  UNL1        0.0204
     11 C         139.0788  139.9072  168.1481 C.ar    1  UNL1       -0.0026
     12 C         138.3752  138.6087  166.0106 C.3     1  UNL1        0.0265
     13 C         138.8869  137.5184  165.1165 C.3     1  UNL1        0.0047
     14 C         138.4245  139.0047  163.0364 C.3     1  UNL1        0.0000
     15 C         138.9453  137.7307  163.6328 C.3     1  UNL1        0.0003
     16 C         142.6448  141.9981  164.6608 C.3     1  UNL1        0.1688
     17 C         141.9246  143.3000  164.4696 C.3     1  UNL1        0.0609
     18 C         141.8105  143.8997  163.0994 C.3     1  UNL1        0.0758
     19 N         142.4164  143.1976  161.9205 N.3     1  UNL1       -0.2724
     20 C         143.1365  141.8958  162.1117 C.3     1  UNL1        0.0758
     21 C         143.2507  141.2960  163.4818 C.3     1  UNL1        0.0609
     22 C         142.3022  143.7974  160.5504 C.3     1  UNL1        0.0739
     23 C         140.9644  144.2357  160.0326 C.3     1  UNL1        0.0426
     24 C         139.8880  143.2214  159.7824 C.3     1  UNL1        0.1523
     25 S         138.8981  142.8966  160.8616 S.O2    1  UNL1       -0.0100
     26 O         138.9782  141.4436  160.4977 O.2     1  UNL1       -0.1730
     27 O         138.8181  144.3496  161.2254 O.2     1  UNL1       -0.1730
     28 C         137.9082  142.5718  161.9408 C.3     1  UNL1        0.1508
     29 C         137.9944  143.2618  163.2699 C.3     1  UNL1        0.0253
     30 C         138.1402  142.4548  164.5258 C.3     1  UNL1        0.0019
@<TRIPOS>BOND
     1    14    15    1
     2    15    13    1
     3    13    12    1
     4    12     2    1
     5     2     3   ar
     6     3     4   ar
     7     4     1    1
     8     1    16    1
     9    16    17    1
    10    17    18    1
    11    18    19    1
    12    19    22    1
    13    22    23    1
    14    23    24    1
    15    24    25    1
    16    25    26    2
    17    25    27    2
    18    25    28    1
    19    28    29    1
    20    29    30    1
    21    19    20    1
    22    20    21    1
    23     4     5   ar
    24     5     6   ar
    25     6     7   ar
    26     7     8   ar
    27     8     9   ar
    28     9    10   ar
    29    10    11   ar
    30    11     2   ar
    31    21    16    1
    32    10     5   ar
@<TRIPOS>MOLECULE
*****
 30 32 0 0 0
SMALL
GASTEIGER

@<TRIPOS>ATOM
      1 O         139.1935  142.1104  166.1747 O.3     1  UNL1       -0.4776
      2 C         141.9622  139.2676  166.1241 C.ar    1  UNL1       -0.0191
      3 C         140.7754  140.0973  165.7330 C.ar    1  UNL1        0.0342
      4 C         140.3804  141.2807  166.5658 C.ar    1  UNL1        0.1555
      5 C         141.1722  141.6344  167.7897 C.ar    1  UNL1        0.1151
      6 N         140.7772  142.8177  168.6225 N.ar    1  UNL1       -0.2408
      7 C         141.5691  143.1714  169.8464 C.ar    1  UNL1        0.0989
      8 C         142.7559  142.3416  170.2374 C.ar    1  UNL1        0.0207
      9 C         143.1509  141.1583  169.4047 C.ar    1  UNL1        0.0032
     10 C         142.3591  140.8046  168.1808 C.ar    1  UNL1        0.0204
     11 C         142.7540  139.6212  167.3479 C.ar    1  UNL1       -0.0026
     12 C         142.3572  138.0842  165.2912 C.3     1  UNL1        0.0265
     13 C         141.3016  137.2243  164.6617 C.3     1  UNL1        0.0047
     14 C         142.0614  137.9110  162.2740 C.3     1  UNL1        0.0000
     15 C         141.0258  137.3312  163.1912 C.3     1  UNL1        0.0003
     16 C         139.3132  143.1159  165.0681 C.3     1  UNL1        0.1688
     17 C         140.6257  143.7950  164.8105 C.3     1  UNL1        0.0609
     18 C         140.7454  144.8005  163.7039 C.3     1  UNL1        0.0758
     19 N         139.5527  145.1270  162.8549 N.3     1  UNL1       -0.2724
     20 C         138.2402  144.4480  163.1125 C.3     1  UNL1        0.0758
     21 C         138.1205  143.4425  164.2192 C.3     1  UNL1        0.0609
     22 C         139.6724  146.1325  161.7484 C.3     1  UNL1        0.0739
     23 C         140.3268  145.7492  160.4542 C.3     1  UNL1        0.0426
     24 C         140.2608  144.3305  159.9716 C.3     1  UNL1        0.1523
     25 S         141.3535  143.3661  160.3262 S.O2    1  UNL1       -0.0100
     26 O         142.3779  144.3482  159.8403 O.2     1  UNL1       -0.1730
     27 O         140.3291  142.3841  160.8120 O.2     1  UNL1       -0.1730
     28 C         142.4463  142.4016  160.6808 C.3     1  UNL1        0.1508
     29 C         143.1533  142.5206  161.9984 C.3     1  UNL1        0.0253
     30 C         142.9923  141.4489  163.0354 C.3     1  UNL1        0.0019
@<TRIPOS>BOND
     1    14    15    1
     2    15    13    1
     3    13    12    1
     4    12     2    1
     5     2     3   ar
     6     3     4   ar
     7     4     1    1
     8     1    16    1
     9    16    17    1
    10    17    18    1
    11    18    19    1
    12    19    22    1
    13    22    23    1
    14    23    24    1
    15    24    25    1
    16    25    26    2
    17    25    27    2
    18    25    28    1
    19    28    29    1
    20    29    30    1
    21    19    20    1
    22    20    21    1
    23     4     5   ar
    24     5     6   ar
    25     6     7   ar
    26     7     8   ar
    27     8     9   ar
    28     9    10   ar
    29    10    11   ar
    30    11     2   ar
    31    21    16    1
    32    10     5   ar
@<TRIPOS>MOLECULE
*****
 30 32 0 0 0
SMALL
GASTEIGER

@<TRIPOS>ATOM
      1 O         143.2733  139.3517  166.1490 O.3     1  UNL1       -0.4776
      2 C         139.3353  139.5918  166.5784 C.ar    1  UNL1       -0.0191
      3 C         140.6832  139.3962  165.9501 C.ar    1  UNL1        0.0342
      4 C         141.9253  139.5473  166.7773 C.ar    1  UNL1        0.1555
      5 C         141.8195  139.8939  168.2329 C.ar    1  UNL1        0.1151
      6 N         143.0616  140.0449  169.0602 N.ar    1  UNL1       -0.2408
      7 C         142.9558  140.3915  170.5157 C.ar    1  UNL1        0.0989
      8 C         141.6078  140.5870  171.1440 C.ar    1  UNL1        0.0207
      9 C         140.3657  140.4360  170.3168 C.ar    1  UNL1        0.0032
     10 C         140.4716  140.0894  168.8613 C.ar    1  UNL1        0.0204
     11 C         139.2294  139.9384  168.0340 C.ar    1  UNL1       -0.0026
     12 C         138.0931  139.4407  165.7512 C.3     1  UNL1        0.0265
     13 C         137.9510  140.2009  164.4658 C.3     1  UNL1        0.0047
     14 C         137.6132  142.4788  163.2630 C.3     1  UNL1        0.0000
     15 C         138.0574  141.6971  164.4637 C.3     1  UNL1        0.0003
     16 C         143.6954  140.2133  164.9960 C.3     1  UNL1        0.1688
     17 C         144.2905  139.5866  163.7699 C.3     1  UNL1        0.0609
     18 C         144.7126  140.4482  162.6169 C.3     1  UNL1        0.0758
     19 N         144.5397  141.9364  162.6899 N.3     1  UNL1       -0.2724
     20 C         143.9447  142.5630  163.9159 C.3     1  UNL1        0.0758
     21 C         143.5225  141.7015  165.0690 C.3     1  UNL1        0.0609
     22 C         144.9618  142.7979  161.5369 C.3     1  UNL1        0.0739
     23 C         144.3880  142.5581  160.1718 C.3     1  UNL1        0.0426
     24 C         142.9701  142.9473  159.8753 C.3     1  UNL1        0.1523
     25 S         141.8375  142.1784  160.4885 S.O2    1  UNL1       -0.0100
     26 O         141.4914  143.3655  161.3376 O.2     1  UNL1       -0.1730
     27 O         142.1836  140.9914  159.6393 O.2     1  UNL1       -0.1730
     28 C         140.7048  141.4095  161.1016 C.3     1  UNL1        0.1508
     29 C         140.9309  140.6084  162.3495 C.3     1  UNL1        0.0253
     30 C         140.8371  139.1120  162.3074 C.3     1  UNL1        0.0019
@<TRIPOS>BOND
     1    14    15    1
     2    15    13    1
     3    13    12    1
     4    12     2    1
     5     2     3   ar
     6     3     4   ar
     7     4     1    1
     8     1    16    1
     9    16    17    1
    10    17    18    1
    11    18    19    1
    12    19    22    1
    13    22    23    1
    14    23    24    1
    15    24    25    1
    16    25    26    2
    17    25    27    2
    18    25    28    1
    19    28    29    1
    20    29    30    1
    21    19    20    1
    22    20    21    1
    23     4     5   ar
    24     5     6   ar
    25     6     7   ar
    26     7     8   ar
    27     8     9   ar
    28     9    10   ar
    29    10    11   ar
    30    11     2   ar
    31    21    16    1
    32    10     5   ar
@<TRIPOS>MOLECULE
*****
 30 32 0 0 0
SMALL
GASTEIGER

@<TRIPOS>ATOM
      1 O         140.2614  142.8157  166.1897 O.3     1  UNL1       -0.4776
      2 C         142.5568  139.6215  166.7168 C.ar    1  UNL1       -0.0191
      3 C         141.7924  140.7218  166.0424 C.ar    1  UNL1        0.0342
      4 C         141.0258  141.7153  166.8641 C.ar    1  UNL1        0.1555
      5 C         141.0236  141.6084  168.3604 C.ar    1  UNL1        0.1151
      6 N         140.2571  142.6019  169.1821 N.ar    1  UNL1       -0.2408
      7 C         140.2549  142.4950  170.6783 C.ar    1  UNL1        0.0989
      8 C         141.0194  141.3946  171.3527 C.ar    1  UNL1        0.0207
      9 C         141.7860  140.4012  170.5309 C.ar    1  UNL1        0.0032
     10 C         141.7881  140.5081  169.0348 C.ar    1  UNL1        0.0204
     11 C         142.5547  139.5146  168.2129 C.ar    1  UNL1       -0.0026
     12 C         143.3235  138.6280  165.8950 C.3     1  UNL1        0.0265
     13 C         143.4535  138.8217  164.4132 C.3     1  UNL1        0.0047
     14 C         145.1597  140.7640  164.1557 C.3     1  UNL1        0.0000
     15 C         144.7279  139.3634  163.8367 C.3     1  UNL1        0.0003
     16 C         139.7507  142.6267  164.7921 C.3     1  UNL1        0.1688
     17 C         138.3689  142.0891  164.5647 C.3     1  UNL1        0.0609
     18 C         137.8583  141.9001  163.1670 C.3     1  UNL1        0.0758
     19 N         138.7294  142.2487  161.9967 N.3     1  UNL1       -0.2724
     20 C         140.1112  142.7863  162.2241 C.3     1  UNL1        0.0758
     21 C         140.6219  142.9753  163.6218 C.3     1  UNL1        0.0609
     22 C         138.2188  142.0598  160.5990 C.3     1  UNL1        0.0739
     23 C         138.7344  140.9293  159.7586 C.3     1  UNL1        0.0426
     24 C         138.3073  139.5216  160.0514 C.3     1  UNL1        0.1523
     25 S         138.9749  138.7484  161.1497 S.O2    1  UNL1       -0.0100
     26 O         140.2953  138.9011  160.4547 O.2     1  UNL1       -0.1730
     27 O         137.6545  138.5957  161.8447 O.2     1  UNL1       -0.1730
     28 C         139.6425  137.9752  162.2482 C.3     1  UNL1        0.1508
     29 C         139.7779  138.5786  163.6148 C.3     1  UNL1        0.0253
     30 C         139.6370  137.7152  164.8332 C.3     1  UNL1        0.0019
@<TRIPOS>BOND
     1    14    15    1
     2    15    13    1
     3    13    12    1
     4    12     2    1
     5     2     3   ar
     6     3     4   ar
     7     4     1    1
     8     1    16    1
     9    16    17    1
    10    17    18    1
    11    18    19    1
    12    19    22    1
    13    22    23    1
    14    23    24    1
    15    24    25    1
    16    25    26    2
    17    25    27    2
    18    25    28    1
    19    28    29    1
    20    29    30    1
    21    19    20    1
    22    20    21    1
    23     4     5   ar
    24     5     6   ar
    25     6     7   ar
    26     7     8   ar
    27     8     9   ar
    28     9    10   ar
    29    10    11   ar
    30    11     2   ar
    31    21    16    1
    32    10     5   ar
@<TRIPOS>MOLECULE
*****
 30 32 0 0 0
SMALL
GASTEIGER

@<TRIPOS>ATOM
      1 O         139.0873  141.0700  166.2585 O.3     1  UNL1       -0.4776
      2 C         142.5177  139.1002  166.5782 C.ar    1  UNL1       -0.0191
      3 C         141.2661  139.6808  165.9894 C.ar    1  UNL1        0.0342
      4 C         140.3388  140.4895  166.8472 C.ar    1  UNL1        0.1555
      5 C         140.6629  140.7177  168.2940 C.ar    1  UNL1        0.1151
      6 N         139.7356  141.5265  169.1518 N.ar    1  UNL1       -0.2408
      7 C         140.0598  141.7547  170.5984 C.ar    1  UNL1        0.0989
      8 C         141.3113  141.1742  171.1872 C.ar    1  UNL1        0.0207
      9 C         142.2386  140.3655  170.3294 C.ar    1  UNL1        0.0032
     10 C         141.9145  140.1372  168.8828 C.ar    1  UNL1        0.0204
     11 C         142.8418  139.3285  168.0248 C.ar    1  UNL1       -0.0026
     12 C         143.4450  138.2915  165.7203 C.3     1  UNL1        0.0265
     13 C         144.5457  138.9695  164.9596 C.3     1  UNL1        0.0047
     14 C         143.2044  138.7183  162.7488 C.3     1  UNL1        0.0000
     15 C         144.3632  139.2950  163.5067 C.3     1  UNL1        0.0003
     16 C         139.1760  142.1793  165.2527 C.3     1  UNL1        0.1688
     17 C         140.1618  143.2928  165.4493 C.3     1  UNL1        0.0609
     18 C         140.2506  144.4021  164.4436 C.3     1  UNL1        0.0758
     19 N         139.3537  144.3980  163.2413 N.3     1  UNL1       -0.2724
     20 C         138.3679  143.2846  163.0447 C.3     1  UNL1        0.0758
     21 C         138.2791  142.1752  164.0505 C.3     1  UNL1        0.0609
     22 C         139.4425  145.5073  162.2356 C.3     1  UNL1        0.0739
     23 C         140.5552  145.5205  161.2297 C.3     1  UNL1        0.0426
     24 C         141.0201  144.2366  160.6087 C.3     1  UNL1        0.1523
     25 S         142.1072  143.4372  161.2637 S.O2    1  UNL1       -0.0100
     26 O         142.8317  144.7047  161.6080 O.2     1  UNL1       -0.1730
     27 O         141.3826  142.1698  160.9194 O.2     1  UNL1       -0.1730
     28 C         143.1943  142.6377  161.9188 C.3     1  UNL1        0.1508
     29 C         144.0024  143.2398  163.0299 C.3     1  UNL1        0.0253
     30 C         143.7502  142.8266  164.4496 C.3     1  UNL1        0.0019
@<TRIPOS>BOND
     1    14    15    1
     2    15    13    1
     3    13    12    1
     4    12     2    1
     5     2     3   ar
     6     3     4   ar
     7     4     1    1
     8     1    16    1
     9    16    17    1
    10    17    18    1
    11    18    19    1
    12    19    22    1
    13    22    23    1
    14    23    24    1
    15    24    25    1
    16    25    26    2
    17    25    27    2
    18    25    28    1
    19    28    29    1
    20    29    30    1
    21    19    20    1
    22    20    21    1
    23     4     5   ar
    24     5     6   ar
    25     6     7   ar
    26     7     8   ar
    27     8     9   ar
    28     9    10   ar
    29    10    11   ar
    30    11     2   ar
    31    21    16    1
    32    10     5   ar
@<TRIPOS>MOLECULE
*****
 30 32 0 0 0
SMALL
GASTEIGER

@<TRIPOS>ATOM
      1 O         138.4800  138.7825  164.4433 O.3     1  UNL1       -0.4776
      2 C         139.6998  139.8995  168.0508 C.ar    1  UNL1       -0.0191
      3 C         138.7969  139.5489  166.9054 C.ar    1  UNL1        0.0342
      4 C         139.3828  139.1330  165.5887 C.ar    1  UNL1        0.1555
      5 C         140.8716  139.0676  165.4174 C.ar    1  UNL1        0.1151
      6 N         141.4575  138.6517  164.1007 N.ar    1  UNL1       -0.2408
      7 C         142.9462  138.5863  163.9294 C.ar    1  UNL1        0.0989
      8 C         143.8491  138.9369  165.0748 C.ar    1  UNL1        0.0207
      9 C         143.2632  139.3528  166.3915 C.ar    1  UNL1        0.0032
     10 C         141.7745  139.4182  166.5628 C.ar    1  UNL1        0.0204
     11 C         141.1885  139.8341  167.8795 C.ar    1  UNL1       -0.0026
     12 C         139.1139  140.3154  169.3676 C.3     1  UNL1        0.0265
     13 C         139.9145  141.1643  170.3101 C.3     1  UNL1        0.0047
     14 C         141.2129  143.3594  169.8142 C.3     1  UNL1        0.0000
     15 C         139.9308  142.6553  170.1469 C.3     1  UNL1        0.0003
     16 C         138.4051  139.6816  163.2450 C.3     1  UNL1        0.1688
     17 C         138.2263  139.0940  161.8764 C.3     1  UNL1        0.0609
     18 C         138.1514  139.9931  160.6781 C.3     1  UNL1        0.0758
     19 N         138.2554  141.4798  160.8483 N.3     1  UNL1       -0.2724
     20 C         138.4342  142.0674  162.2167 C.3     1  UNL1        0.0758
     21 C         138.5090  141.1683  163.4151 C.3     1  UNL1        0.0609
     22 C         138.1805  142.3788  159.6499 C.3     1  UNL1        0.0739
     23 C         139.4267  142.7155  158.8859 C.3     1  UNL1        0.0426
     24 C         140.0667  144.0621  159.0506 C.3     1  UNL1        0.1523
     25 S         140.6225  144.4703  160.3827 S.O2    1  UNL1       -0.0100
     26 O         139.6572  145.6172  160.4340 O.2     1  UNL1       -0.1730
     27 O         141.5878  143.3234  160.3314 O.2     1  UNL1       -0.1730
     28 C         141.1784  144.8785  161.7148 C.3     1  UNL1        0.1508
     29 C         140.2535  145.3201  162.8100 C.3     1  UNL1        0.0253
     30 C         140.3425  144.6879  164.1673 C.3     1  UNL1        0.0019
@<TRIPOS>BOND
     1    14    15    1
     2    15    13    1
     3    13    12    1
     4    12     2    1
     5     2     3   ar
     6     3     4   ar
     7     4     1    1
     8     1    16    1
     9    16    17    1
    10    17    18    1
    11    18    19    1
    12    19    22    1
    13    22    23    1
    14    23    24    1
    15    24    25    1
    16    25    26    2
    17    25    27    2
    18    25    28    1
    19    28    29    1
    20    29    30    1
    21    19    20    1
    22    20    21    1
    23     4     5   ar
    24     5     6   ar
    25     6     7   ar
    26     7     8   ar
    27     8     9   ar
    28     9    10   ar
    29    10    11   ar
    30    11     2   ar
    31    21    16    1
    32    10     5   ar
