@<TRIPOS>MOLECULE
*****
 33 37 0 0 0
SMALL
GASTEIGER

@<TRIPOS>ATOM
      1 N         140.8953  139.6231  160.0086 N.ar    1  UNL1       -0.2562
      2 C         140.9067  141.1070  159.7907 C.ar    1  UNL1        0.1851
      3 N         140.7978  142.0379  160.9619 N.ar    1  UNL1       -0.2244
      4 C         140.6776  141.4847  162.3510 C.ar    1  UNL1        0.0941
      5 C         140.5554  142.1507  163.6894 C.ar    1  UNL1        0.0263
      6 C         140.4684  141.0782  164.7345 C.ar    1  UNL1        0.0312
      7 S         140.5370  139.7494  164.0420 S.2     1  UNL1       -0.0807
      8 C         140.6662  140.0007  162.5688 C.ar    1  UNL1        0.1036
      9 C         140.7751  139.0698  161.3976 C.ar    1  UNL1        0.2733
     10 O         140.7637  137.5858  161.6155 O.2     1  UNL1       -0.2660
     11 C         140.3362  141.2963  166.2127 C.ar    1  UNL1        0.0061
     12 C         139.8185  140.1951  167.0899 C.ar    1  UNL1        0.0014
     13 C         139.6863  140.4132  168.5681 C.ar    1  UNL1        0.0114
     14 C         140.0718  141.7324  169.1691 C.ar    1  UNL1        0.0577
     15 CL        139.9395  141.9504  170.6472 Cl      1  UNL1       -0.0822
     16 C         140.5895  142.8335  168.2919 C.ar    1  UNL1        0.0114
     17 C         140.7217  142.6154  166.8137 C.ar    1  UNL1        0.0014
     18 C         139.8870  137.3940  156.8838 C.ar    1  UNL1        0.1738
     19 C         139.7782  138.3248  158.0549 C.ar    1  UNL1        0.0577
     20 C         141.0041  138.6921  158.8374 C.ar    1  UNL1        0.0715
     21 C         142.3387  138.1286  158.4487 C.ar    1  UNL1        0.0210
     22 C         142.4475  137.1976  157.2775 C.ar    1  UNL1        0.0415
     23 C         141.2216  136.8304  156.4951 C.ar    1  UNL1        0.1724
     24 C         138.4093  137.6552  154.7628 C.3     1  UNL1        0.2526
     25 O         138.6610  137.0266  156.1012 O.3     1  UNL1       -0.4683
     26 O         141.3304  135.8995  155.3239 O.3     1  UNL1       -0.4709
     27 C         141.7747  134.4819  155.5313 C.3     1  UNL1        0.2228
     28 C         143.1786  134.0784  155.1904 C.3     1  UNL1        0.1200
     29 N         143.8887  133.0550  156.0262 N.3     1  UNL1       -0.2696
     30 C         144.2950  131.6814  155.5813 C.3     1  UNL1        0.0722
     31 C         144.9745  131.0030  156.7337 C.3     1  UNL1        0.0188
     32 C         144.9882  131.9574  157.8908 C.3     1  UNL1        0.0188
     33 C         144.3171  133.2256  157.4535 C.3     1  UNL1        0.0722
@<TRIPOS>BOND
     1    24    25    1
     2    25    18    1
     3    18    19   ar
     4    19    20   ar
     5    20     1    1
     6     1     2   ar
     7     2     3   ar
     8     3     4   ar
     9     4     5   ar
    10     5     6   ar
    11     6    11    1
    12    11    12   ar
    13    12    13   ar
    14    13    14   ar
    15    14    15    1
    16    14    16   ar
    17    16    17   ar
    18     6     7   ar
    19     7     8   ar
    20     8     9   ar
    21     9    10    2
    22    20    21   ar
    23    21    22   ar
    24    22    23   ar
    25    23    26    1
    26    26    27    1
    27    27    28    1
    28    28    29    1
    29    29    30    1
    30    30    31    1
    31    31    32    1
    32    32    33    1
    33    23    18   ar
    34    33    29    1
    35     9     1   ar
    36     8     4   ar
    37    17    11   ar
@<TRIPOS>MOLECULE
*****
 33 37 0 0 0
SMALL
GASTEIGER

@<TRIPOS>ATOM
      1 N         141.0547  139.7566  159.9373 N.ar    1  UNL1       -0.2562
      2 C         141.1879  141.2409  159.7680 C.ar    1  UNL1        0.1851
      3 N         141.1088  142.1424  160.9643 N.ar    1  UNL1       -0.2244
      4 C         140.8963  141.5594  162.3299 C.ar    1  UNL1        0.0941
      5 C         140.7774  142.1930  163.6843 C.ar    1  UNL1        0.0263
      6 C         140.5706  141.1001  164.6907 C.ar    1  UNL1        0.0312
      7 S         140.5618  139.7911  163.9583 S.2     1  UNL1       -0.0807
      8 C         140.7631  140.0749  162.4992 C.ar    1  UNL1        0.1036
      9 C         140.8423  139.1735  161.3029 C.ar    1  UNL1        0.2733
     10 O         140.7090  137.6891  161.4722 O.2     1  UNL1       -0.2660
     11 C         140.4023  141.2839  166.1699 C.ar    1  UNL1        0.0061
     12 C         140.6873  142.6162  166.7973 C.ar    1  UNL1        0.0014
     13 C         140.5189  142.7999  168.2765 C.ar    1  UNL1        0.0114
     14 C         140.0655  141.6514  169.1282 C.ar    1  UNL1        0.0577
     15 CL        139.8972  141.8353  170.6073 Cl      1  UNL1       -0.0822
     16 C         139.7805  140.3191  168.5007 C.ar    1  UNL1        0.0114
     17 C         139.9489  140.1354  167.0215 C.ar    1  UNL1        0.0014
     18 C         142.5495  137.5700  156.9819 C.ar    1  UNL1        0.1738
     19 C         142.4703  138.4715  158.1781 C.ar    1  UNL1        0.0577
     20 C         141.1339  138.8550  158.7410 C.ar    1  UNL1        0.0715
     21 C         139.8767  138.3372  158.1076 C.ar    1  UNL1        0.0210
     22 C         139.9559  137.4357  156.9113 C.ar    1  UNL1        0.0415
     23 C         141.2923  137.0521  156.3485 C.ar    1  UNL1        0.1724
     24 C         144.4506  137.9368  155.2494 C.3     1  UNL1        0.2526
     25 O         143.8861  137.1864  156.4190 O.3     1  UNL1       -0.4683
     26 O         141.3716  136.1506  155.1522 O.3     1  UNL1       -0.4709
     27 C         141.3425  134.6617  155.3318 C.3     1  UNL1        0.2228
     28 C         142.5106  133.8302  154.8914 C.3     1  UNL1        0.1200
     29 N         143.4634  133.2767  155.9093 N.3     1  UNL1       -0.2696
     30 C         144.3321  132.0661  155.7372 C.3     1  UNL1        0.0722
     31 C         145.1202  131.8780  156.9995 C.3     1  UNL1        0.0188
     32 C         144.7386  132.9723  157.9517 C.3     1  UNL1        0.0188
     33 C         143.7146  133.8368  157.2779 C.3     1  UNL1        0.0722
@<TRIPOS>BOND
     1    24    25    1
     2    25    18    1
     3    18    19   ar
     4    19    20   ar
     5    20     1    1
     6     1     2   ar
     7     2     3   ar
     8     3     4   ar
     9     4     5   ar
    10     5     6   ar
    11     6    11    1
    12    11    12   ar
    13    12    13   ar
    14    13    14   ar
    15    14    15    1
    16    14    16   ar
    17    16    17   ar
    18     6     7   ar
    19     7     8   ar
    20     8     9   ar
    21     9    10    2
    22    20    21   ar
    23    21    22   ar
    24    22    23   ar
    25    23    26    1
    26    26    27    1
    27    27    28    1
    28    28    29    1
    29    29    30    1
    30    30    31    1
    31    31    32    1
    32    32    33    1
    33    23    18   ar
    34    33    29    1
    35     9     1   ar
    36     8     4   ar
    37    17    11   ar
@<TRIPOS>MOLECULE
*****
 33 37 0 0 0
SMALL
GASTEIGER

@<TRIPOS>ATOM
      1 N         139.9410  144.0938  161.7037 N.ar    1  UNL1       -0.2562
      2 C         138.9451  144.8449  162.5366 C.ar    1  UNL1        0.1851
      3 N         138.9150  144.6535  164.0241 N.ar    1  UNL1       -0.2244
      4 C         139.8810  143.7109  164.6786 C.ar    1  UNL1        0.0941
      5 C         140.0871  143.3203  166.1121 C.ar    1  UNL1        0.0263
      6 C         141.2105  142.3277  166.1651 C.ar    1  UNL1        0.0312
      7 S         141.6986  142.1048  164.7643 S.2     1  UNL1       -0.0807
      8 C         140.8769  142.9597  163.8456 C.ar    1  UNL1        0.1036
      9 C         140.9069  143.1511  162.3582 C.ar    1  UNL1        0.2733
     10 O         141.9029  142.3999  161.5252 O.2     1  UNL1       -0.2660
     11 C         141.7509  141.6730  167.4017 C.ar    1  UNL1        0.0061
     12 C         141.2317  140.3319  167.8283 C.ar    1  UNL1        0.0014
     13 C         141.7721  139.6772  169.0649 C.ar    1  UNL1        0.0114
     14 C         142.8318  140.3635  169.8750 C.ar    1  UNL1        0.0577
     15 CL        143.3722  139.7087  171.1116 Cl      1  UNL1       -0.0822
     16 C         143.3510  141.7045  169.4484 C.ar    1  UNL1        0.0114
     17 C         142.8105  142.3592  168.2118 C.ar    1  UNL1        0.0014
     18 C         139.3687  143.4568  157.8286 C.ar    1  UNL1        0.1738
     19 C         139.3387  143.2655  159.3160 C.ar    1  UNL1        0.0577
     20 C         139.9710  144.2852  160.2162 C.ar    1  UNL1        0.0715
     21 C         140.6332  145.4961  159.6291 C.ar    1  UNL1        0.0210
     22 C         140.6633  145.6875  158.1416 C.ar    1  UNL1        0.0415
     23 C         140.0310  144.6679  157.2414 C.ar    1  UNL1        0.1724
     24 C         137.2485  142.4231  156.7395 C.3     1  UNL1        0.2526
     25 O         138.7364  142.4371  156.9283 O.3     1  UNL1       -0.4683
     26 O         140.0610  144.8592  155.7539 O.3     1  UNL1       -0.4709
     27 C         139.1286  145.8386  155.1048 C.3     1  UNL1        0.2228
     28 C         139.6413  147.1717  154.6465 C.3     1  UNL1        0.1200
     29 N         139.1916  148.4256  155.3362 N.3     1  UNL1       -0.2696
     30 C         139.2552  149.8137  154.7715 C.3     1  UNL1        0.0722
     31 C         138.7022  150.7574  155.7980 C.3     1  UNL1        0.0188
     32 C         138.2969  149.9525  156.9970 C.3     1  UNL1        0.0188
     33 C         138.5994  148.5113  156.7117 C.3     1  UNL1        0.0722
@<TRIPOS>BOND
     1    24    25    1
     2    25    18    1
     3    18    19   ar
     4    19    20   ar
     5    20     1    1
     6     1     2   ar
     7     2     3   ar
     8     3     4   ar
     9     4     5   ar
    10     5     6   ar
    11     6    11    1
    12    11    12   ar
    13    12    13   ar
    14    13    14   ar
    15    14    15    1
    16    14    16   ar
    17    16    17   ar
    18     6     7   ar
    19     7     8   ar
    20     8     9   ar
    21     9    10    2
    22    20    21   ar
    23    21    22   ar
    24    22    23   ar
    25    23    26    1
    26    26    27    1
    27    27    28    1
    28    28    29    1
    29    29    30    1
    30    30    31    1
    31    31    32    1
    32    32    33    1
    33    23    18   ar
    34    33    29    1
    35     9     1   ar
    36     8     4   ar
    37    17    11   ar
@<TRIPOS>MOLECULE
*****
 33 37 0 0 0
SMALL
GASTEIGER

@<TRIPOS>ATOM
      1 N         141.3002  139.4197  157.7524 N.ar    1  UNL1       -0.2562
      2 C         140.2138  139.2450  156.7331 C.ar    1  UNL1        0.1851
      3 N         140.1536  137.9937  155.9080 N.ar    1  UNL1       -0.2244
      4 C         141.1799  136.9172  156.1022 C.ar    1  UNL1        0.0941
      5 C         141.3746  135.5850  155.4409 C.ar    1  UNL1        0.0263
      6 C         142.5815  134.9364  156.0514 C.ar    1  UNL1        0.0312
      7 S         143.1326  135.8677  157.0902 S.2     1  UNL1       -0.0807
      8 C         142.2664  137.0919  157.1216 C.ar    1  UNL1        0.1036
      9 C         142.3266  138.3431  157.9466 C.ar    1  UNL1        0.2733
     10 O         143.4130  138.5179  158.9660 O.2     1  UNL1       -0.2660
     11 C         143.1393  133.5925  155.6872 C.ar    1  UNL1        0.0061
     12 C         144.2408  132.9901  156.5081 C.ar    1  UNL1        0.0014
     13 C         144.7986  131.6461  156.1438 C.ar    1  UNL1        0.0114
     14 C         144.2548  130.9045  154.9588 C.ar    1  UNL1        0.0577
     15 CL        144.8127  129.5606  154.5946 Cl      1  UNL1       -0.0822
     16 C         143.1533  131.5068  154.1379 C.ar    1  UNL1        0.0114
     17 C         142.5955  132.8508  154.5022 C.ar    1  UNL1        0.0014
     18 C         142.1503  143.1267  158.8860 C.ar    1  UNL1        0.1738
     19 C         142.0900  141.8755  158.0610 C.ar    1  UNL1        0.0577
     20 C         141.3605  140.6709  158.5775 C.ar    1  UNL1        0.0715
     21 C         140.6913  140.7176  159.9190 C.ar    1  UNL1        0.0210
     22 C         140.7515  141.9689  160.7442 C.ar    1  UNL1        0.0415
     23 C         141.4810  143.1734  160.2276 C.ar    1  UNL1        0.1724
     24 C         142.1704  145.3179  157.4901 C.3     1  UNL1        0.2526
     25 O         142.8798  144.3314  158.3694 O.3     1  UNL1       -0.4683
     26 O         141.5413  144.4247  161.0527 O.3     1  UNL1       -0.4709
     27 C         140.5388  145.5183  160.8310 C.3     1  UNL1        0.2228
     28 C         139.7088  146.0182  161.9760 C.3     1  UNL1        0.1200
     29 N         139.2396  145.0647  163.0347 N.3     1  UNL1       -0.2696
     30 C         137.9394  144.3168  163.0341 C.3     1  UNL1        0.0722
     31 C         137.8846  143.4816  164.2788 C.3     1  UNL1        0.0188
     32 C         139.1508  143.7134  165.0487 C.3     1  UNL1        0.0188
     33 C         139.9883  144.6918  164.2798 C.3     1  UNL1        0.0722
@<TRIPOS>BOND
     1    24    25    1
     2    25    18    1
     3    18    19   ar
     4    19    20   ar
     5    20     1    1
     6     1     2   ar
     7     2     3   ar
     8     3     4   ar
     9     4     5   ar
    10     5     6   ar
    11     6    11    1
    12    11    12   ar
    13    12    13   ar
    14    13    14   ar
    15    14    15    1
    16    14    16   ar
    17    16    17   ar
    18     6     7   ar
    19     7     8   ar
    20     8     9   ar
    21     9    10    2
    22    20    21   ar
    23    21    22   ar
    24    22    23   ar
    25    23    26    1
    26    26    27    1
    27    27    28    1
    28    28    29    1
    29    29    30    1
    30    30    31    1
    31    31    32    1
    32    32    33    1
    33    23    18   ar
    34    33    29    1
    35     9     1   ar
    36     8     4   ar
    37    17    11   ar
@<TRIPOS>MOLECULE
*****
 33 37 0 0 0
SMALL
GASTEIGER

@<TRIPOS>ATOM
      1 N         141.4346  139.4204  159.6446 N.ar    1  UNL1       -0.2562
      2 C         140.7338  140.7464  159.6624 C.ar    1  UNL1        0.1851
      3 N         140.6329  141.5243  160.9410 N.ar    1  UNL1       -0.2244
      4 C         141.2328  140.9761  162.2018 C.ar    1  UNL1        0.0941
      5 C         141.2903  141.5121  163.6016 C.ar    1  UNL1        0.0263
      6 C         142.0266  140.5172  164.4489 C.ar    1  UNL1        0.0312
      7 S         142.4243  139.3664  163.5728 S.2     1  UNL1       -0.0807
      8 C         141.9337  139.6500  162.1839 C.ar    1  UNL1        0.1036
      9 C         142.0346  138.8722  160.9054 C.ar    1  UNL1        0.2733
     10 O         142.7355  137.5461  160.8876 O.2     1  UNL1       -0.2660
     11 C         142.3147  140.6498  165.9150 C.ar    1  UNL1        0.0061
     12 C         142.2590  139.4418  166.8025 C.ar    1  UNL1        0.0014
     13 C         142.5472  139.5745  168.2686 C.ar    1  UNL1        0.0114
     14 C         142.8910  140.9150  168.8472 C.ar    1  UNL1        0.0577
     15 CL        143.1792  141.0476  170.3133 Cl      1  UNL1       -0.0822
     16 C         142.9467  142.1230  167.9596 C.ar    1  UNL1        0.0114
     17 C         142.6586  141.9903  166.4935 C.ar    1  UNL1        0.0014
     18 C         142.9723  137.6641  156.4351 C.ar    1  UNL1        0.1738
     19 C         142.8713  138.4420  157.7136 C.ar    1  UNL1        0.0577
     20 C         141.5356  138.6424  158.3661 C.ar    1  UNL1        0.0715
     21 C         140.3009  138.0650  157.7400 C.ar    1  UNL1        0.0210
     22 C         140.4019  137.2870  156.4614 C.ar    1  UNL1        0.0415
     23 C         141.7376  137.0866  155.8090 C.ar    1  UNL1        0.1724
     24 C         144.9198  138.5673  154.9717 C.3     1  UNL1        0.2526
     25 O         144.3081  137.4637  155.7826 O.3     1  UNL1       -0.4683
     26 O         141.8386  136.3087  154.5305 O.3     1  UNL1       -0.4709
     27 C         142.4148  134.9238  154.5387 C.3     1  UNL1        0.2228
     28 C         142.1804  134.0209  155.7133 C.3     1  UNL1        0.1200
     29 N         143.3332  133.3004  156.3473 N.3     1  UNL1       -0.2696
     30 C         144.0992  132.1602  155.7448 C.3     1  UNL1        0.0722
     31 C         145.1618  131.7488  156.7202 C.3     1  UNL1        0.0188
     32 C         145.0526  132.6348  157.9256 C.3     1  UNL1        0.0188
     33 C         143.9224  133.5937  157.6952 C.3     1  UNL1        0.0722
@<TRIPOS>BOND
     1    24    25    1
     2    25    18    1
     3    18    19   ar
     4    19    20   ar
     5    20     1    1
     6     1     2   ar
     7     2     3   ar
     8     3     4   ar
     9     4     5   ar
    10     5     6   ar
    11     6    11    1
    12    11    12   ar
    13    12    13   ar
    14    13    14   ar
    15    14    15    1
    16    14    16   ar
    17    16    17   ar
    18     6     7   ar
    19     7     8   ar
    20     8     9   ar
    21     9    10    2
    22    20    21   ar
    23    21    22   ar
    24    22    23   ar
    25    23    26    1
    26    26    27    1
    27    27    28    1
    28    28    29    1
    29    29    30    1
    30    30    31    1
    31    31    32    1
    32    32    33    1
    33    23    18   ar
    34    33    29    1
    35     9     1   ar
    36     8     4   ar
    37    17    11   ar
@<TRIPOS>MOLECULE
*****
 33 37 0 0 0
SMALL
GASTEIGER

@<TRIPOS>ATOM
      1 N         140.0631  138.6965  160.8803 N.ar    1  UNL1       -0.2562
      2 C         138.6734  138.2251  161.1905 C.ar    1  UNL1        0.1851
      3 N         138.0790  138.4815  162.5437 N.ar    1  UNL1       -0.2244
      4 C         138.8744  139.2093  163.5866 C.ar    1  UNL1        0.0941
      5 C         138.5553  139.6040  164.9981 C.ar    1  UNL1        0.0263
      6 C         139.7479  140.3193  165.5602 C.ar    1  UNL1        0.0312
      7 S         140.8040  140.3667  164.4961 S.2     1  UNL1       -0.0807
      8 C         140.2642  139.6807  163.2763 C.ar    1  UNL1        0.1036
      9 C         140.8586  139.4243  161.9232 C.ar    1  UNL1        0.2733
     10 O         142.2484  139.8957  161.6129 O.2     1  UNL1       -0.2660
     11 C         139.8640  140.8876  166.9436 C.ar    1  UNL1        0.0061
     12 C         139.4523  140.0657  168.1289 C.ar    1  UNL1        0.0014
     13 C         139.5684  140.6341  169.5123 C.ar    1  UNL1        0.0114
     14 C         140.0962  142.0241  169.7103 C.ar    1  UNL1        0.0577
     15 CL        140.2123  142.5923  171.0936 Cl      1  UNL1       -0.0822
     16 C         140.5079  142.8459  168.5249 C.ar    1  UNL1        0.0114
     17 C         140.3918  142.2776  167.1415 C.ar    1  UNL1        0.0014
     18 C         140.4130  138.3527  156.9421 C.ar    1  UNL1        0.1738
     19 C         139.8186  138.6090  158.2953 C.ar    1  UNL1        0.0577
     20 C         140.6576  138.4401  159.5272 C.ar    1  UNL1        0.0715
     21 C         142.0908  138.0150  159.4059 C.ar    1  UNL1        0.0210
     22 C         142.6853  137.7586  158.0528 C.ar    1  UNL1        0.0415
     23 C         141.8463  137.9275  156.8209 C.ar    1  UNL1        0.1724
     24 C         138.7101  137.3931  155.2306 C.3     1  UNL1        0.2526
     25 O         139.5739  138.5215  155.7102 O.3     1  UNL1       -0.4683
     26 O         142.4407  137.6711  155.4677 O.3     1  UNL1       -0.4709
     27 C         142.3167  136.3150  154.8387 C.3     1  UNL1        0.2228
     28 C         141.6467  135.2002  155.5859 C.3     1  UNL1        0.1200
     29 N         142.4692  134.0961  156.1814 N.3     1  UNL1       -0.2696
     30 C         143.6431  134.2676  157.0991 C.3     1  UNL1        0.0722
     31 C         144.1614  132.9041  157.4486 C.3     1  UNL1        0.0188
     32 C         143.3078  131.8899  156.7469 C.3     1  UNL1        0.0188
     33 C         142.2619  132.6265  155.9637 C.3     1  UNL1        0.0722
@<TRIPOS>BOND
     1    24    25    1
     2    25    18    1
     3    18    19   ar
     4    19    20   ar
     5    20     1    1
     6     1     2   ar
     7     2     3   ar
     8     3     4   ar
     9     4     5   ar
    10     5     6   ar
    11     6    11    1
    12    11    12   ar
    13    12    13   ar
    14    13    14   ar
    15    14    15    1
    16    14    16   ar
    17    16    17   ar
    18     6     7   ar
    19     7     8   ar
    20     8     9   ar
    21     9    10    2
    22    20    21   ar
    23    21    22   ar
    24    22    23   ar
    25    23    26    1
    26    26    27    1
    27    27    28    1
    28    28    29    1
    29    29    30    1
    30    30    31    1
    31    31    32    1
    32    32    33    1
    33    23    18   ar
    34    33    29    1
    35     9     1   ar
    36     8     4   ar
    37    17    11   ar
@<TRIPOS>MOLECULE
*****
 33 37 0 0 0
SMALL
GASTEIGER

@<TRIPOS>ATOM
      1 N         141.0722  139.8836  159.2507 N.ar    1  UNL1       -0.2562
      2 C         142.4776  139.5211  159.6290 C.ar    1  UNL1        0.1851
      3 N         143.1760  138.3936  158.9281 N.ar    1  UNL1       -0.2244
      4 C         142.4688  137.6287  157.8489 C.ar    1  UNL1        0.0941
      5 C         142.8982  136.4777  156.9883 C.ar    1  UNL1        0.0263
      6 C         141.7581  136.1288  156.0781 C.ar    1  UNL1        0.0312
      7 S         140.6240  137.0643  156.3761 S.2     1  UNL1       -0.0807
      8 C         141.0633  137.9913  157.4705 C.ar    1  UNL1        0.1036
      9 C         140.3650  139.1188  158.1714 C.ar    1  UNL1        0.2733
     10 O         138.9595  139.4813  157.7931 O.2     1  UNL1       -0.2660
     11 C         141.7529  135.0363  155.0503 C.ar    1  UNL1        0.0061
     12 C         141.7031  133.6006  155.4820 C.ar    1  UNL1        0.0014
     13 C         141.6979  132.5082  154.4542 C.ar    1  UNL1        0.0114
     14 C         141.7426  132.8513  152.9946 C.ar    1  UNL1        0.0577
     15 CL        141.7374  131.7588  151.9668 Cl      1  UNL1       -0.0822
     16 C         141.7925  134.2869  152.5629 C.ar    1  UNL1        0.0114
     17 C         141.7976  135.3794  153.5908 C.ar    1  UNL1        0.0014
     18 C         138.4535  141.8658  161.4786 C.ar    1  UNL1        0.1738
     19 C         139.1519  140.7384  160.7777 C.ar    1  UNL1        0.0577
     20 C         140.3738  141.0111  159.9516 C.ar    1  UNL1        0.0715
     21 C         140.8974  142.4111  159.8264 C.ar    1  UNL1        0.0210
     22 C         140.1991  143.5385  160.5274 C.ar    1  UNL1        0.0415
     23 C         138.9771  143.2658  161.3534 C.ar    1  UNL1        0.1724
     24 C         137.3501  141.4425  163.7923 C.3     1  UNL1        0.2526
     25 O         137.2314  141.5931  162.3047 O.3     1  UNL1       -0.4683
     26 O         138.2787  144.3932  162.0543 O.3     1  UNL1       -0.4709
     27 C         138.9505  145.0977  163.1956 C.3     1  UNL1        0.2228
     28 C         139.7819  144.3199  164.1721 C.3     1  UNL1        0.1200
     29 N         141.2709  144.2539  164.0037 N.3     1  UNL1       -0.2696
     30 C         142.1114  143.0133  164.0687 C.3     1  UNL1        0.0722
     31 C         143.5409  143.4096  163.8459 C.3     1  UNL1        0.0188
     32 C         143.5838  144.8952  163.6432 C.3     1  UNL1        0.0188
     33 C         142.1809  145.4170  163.7408 C.3     1  UNL1        0.0722
@<TRIPOS>BOND
     1    24    25    1
     2    25    18    1
     3    18    19   ar
     4    19    20   ar
     5    20     1    1
     6     1     2   ar
     7     2     3   ar
     8     3     4   ar
     9     4     5   ar
    10     5     6   ar
    11     6    11    1
    12    11    12   ar
    13    12    13   ar
    14    13    14   ar
    15    14    15    1
    16    14    16   ar
    17    16    17   ar
    18     6     7   ar
    19     7     8   ar
    20     8     9   ar
    21     9    10    2
    22    20    21   ar
    23    21    22   ar
    24    22    23   ar
    25    23    26    1
    26    26    27    1
    27    27    28    1
    28    28    29    1
    29    29    30    1
    30    30    31    1
    31    31    32    1
    32    32    33    1
    33    23    18   ar
    34    33    29    1
    35     9     1   ar
    36     8     4   ar
    37    17    11   ar
@<TRIPOS>MOLECULE
*****
 33 37 0 0 0
SMALL
GASTEIGER

@<TRIPOS>ATOM
      1 N         141.2579  139.7772  158.0985 N.ar    1  UNL1       -0.2562
      2 C         140.0357  139.6183  157.2437 C.ar    1  UNL1        0.1851
      3 N         139.8642  138.3889  156.4014 N.ar    1  UNL1       -0.2244
      4 C         140.9150  137.3186  156.4141 C.ar    1  UNL1        0.0941
      5 C         141.0201  136.0067  155.6944 C.ar    1  UNL1        0.0263
      6 C         142.3074  135.3549  156.1046 C.ar    1  UNL1        0.0312
      7 S         142.9978  136.2639  157.0778 S.2     1  UNL1       -0.0807
      8 C         142.1372  137.4775  157.2691 C.ar    1  UNL1        0.1036
      9 C         142.3087  138.7069  158.1113 C.ar    1  UNL1        0.2733
     10 O         143.5309  138.8659  158.9662 O.2     1  UNL1       -0.2660
     11 C         142.8151  134.0272  155.6257 C.ar    1  UNL1        0.0061
     12 C         143.9402  133.3489  156.3497 C.ar    1  UNL1        0.0014
     13 C         144.4478  132.0212  155.8707 C.ar    1  UNL1        0.0114
     14 C         143.8304  131.3716  154.6678 C.ar    1  UNL1        0.0577
     15 CL        144.3382  130.0439  154.1889 Cl      1  UNL1       -0.0822
     16 C         142.7053  132.0499  153.9439 C.ar    1  UNL1        0.0114
     17 C         142.1977  133.3776  154.4228 C.ar    1  UNL1        0.0014
     18 C         142.1584  143.4891  159.1759 C.ar    1  UNL1        0.1738
     19 C         141.9869  142.2598  158.3337 C.ar    1  UNL1        0.0577
     20 C         141.4294  141.0066  158.9408 C.ar    1  UNL1        0.0715
     21 C         141.0433  140.9827  160.3900 C.ar    1  UNL1        0.0210
     22 C         141.2148  142.2121  161.2323 C.ar    1  UNL1        0.0415
     23 C         141.7724  143.4653  160.6252 C.ar    1  UNL1        0.1724
     24 C         141.8107  145.6885  157.8373 C.3     1  UNL1        0.2526
     25 O         142.7160  144.7424  158.5688 O.3     1  UNL1       -0.4683
     26 O         141.9439  144.6946  161.4673 O.3     1  UNL1       -0.4709
     27 C         142.8730  144.6735  162.6447 C.3     1  UNL1        0.2228
     28 C         144.1831  143.9487  162.5534 C.3     1  UNL1        0.1200
     29 N         144.3729  142.6486  163.2771 N.3     1  UNL1       -0.2696
     30 C         145.5537  141.7326  163.1492 C.3     1  UNL1        0.0722
     31 C         145.3256  140.5541  164.0488 C.3     1  UNL1        0.0188
     32 C         144.0039  140.7418  164.7326 C.3     1  UNL1        0.0188
     33 C         143.4150  142.0363  164.2557 C.3     1  UNL1        0.0722
@<TRIPOS>BOND
     1    24    25    1
     2    25    18    1
     3    18    19   ar
     4    19    20   ar
     5    20     1    1
     6     1     2   ar
     7     2     3   ar
     8     3     4   ar
     9     4     5   ar
    10     5     6   ar
    11     6    11    1
    12    11    12   ar
    13    12    13   ar
    14    13    14   ar
    15    14    15    1
    16    14    16   ar
    17    16    17   ar
    18     6     7   ar
    19     7     8   ar
    20     8     9   ar
    21     9    10    2
    22    20    21   ar
    23    21    22   ar
    24    22    23   ar
    25    23    26    1
    26    26    27    1
    27    27    28    1
    28    28    29    1
    29    29    30    1
    30    30    31    1
    31    31    32    1
    32    32    33    1
    33    23    18   ar
    34    33    29    1
    35     9     1   ar
    36     8     4   ar
    37    17    11   ar
@<TRIPOS>MOLECULE
*****
 33 37 0 0 0
SMALL
GASTEIGER

@<TRIPOS>ATOM
      1 N         141.7012  143.7048  160.6295 N.ar    1  UNL1       -0.2562
      2 C         143.1174  143.2115  160.6563 C.ar    1  UNL1        0.1851
      3 N         143.7329  142.7683  161.9505 N.ar    1  UNL1       -0.2244
      4 C         142.9319  142.8183  163.2178 C.ar    1  UNL1        0.0941
      5 C         143.2678  142.4500  164.6325 C.ar    1  UNL1        0.0263
      6 C         142.0590  142.7156  165.4800 C.ar    1  UNL1        0.0312
      7 S         140.9761  143.2481  164.5891 S.2     1  UNL1       -0.0807
      8 C         141.5156  143.3116  163.1909 C.ar    1  UNL1        0.1036
      9 C         140.9002  143.7548  161.8968 C.ar    1  UNL1        0.2733
     10 O         139.4839  144.2481  161.8699 O.2     1  UNL1       -0.2660
     11 C         141.9519  142.4886  166.9589 C.ar    1  UNL1        0.0061
     12 C         140.6057  142.4779  167.6204 C.ar    1  UNL1        0.0014
     13 C         140.4987  142.2509  169.0993 C.ar    1  UNL1        0.0114
     14 C         141.7377  142.0346  169.9166 C.ar    1  UNL1        0.0577
     15 CL        141.6306  141.8076  171.3955 Cl      1  UNL1       -0.0822
     16 C         143.0839  142.0453  169.2551 C.ar    1  UNL1        0.0114
     17 C         143.1909  142.2723  167.7762 C.ar    1  UNL1        0.0014
     18 C         139.6223  143.6403  157.2495 C.ar    1  UNL1        0.1738
     19 C         140.2378  143.1971  158.5436 C.ar    1  UNL1        0.0577
     20 C         141.0857  144.1480  159.3353 C.ar    1  UNL1        0.0715
     21 C         141.3181  145.5421  158.8329 C.ar    1  UNL1        0.0210
     22 C         140.7026  145.9853  157.5388 C.ar    1  UNL1        0.0415
     23 C         139.8547  145.0344  156.7471 C.ar    1  UNL1        0.1724
     24 C         137.2875  142.6687  156.6539 C.3     1  UNL1        0.2526
     25 O         138.7744  142.6893  156.4577 O.3     1  UNL1       -0.4683
     26 O         139.2392  145.4776  155.4529 O.3     1  UNL1       -0.4709
     27 C         138.7527  146.8880  155.2980 C.3     1  UNL1        0.2228
     28 C         139.5526  147.8738  154.4992 C.3     1  UNL1        0.1200
     29 N         139.2931  149.3440  154.6455 N.3     1  UNL1       -0.2696
     30 C         138.5304  149.9982  155.7591 C.3     1  UNL1        0.0722
     31 C         138.5168  151.4765  155.5057 C.3     1  UNL1        0.0188
     32 C         139.2710  151.7360  154.2354 C.3     1  UNL1        0.0188
     33 C         139.7508  150.4180  153.7037 C.3     1  UNL1        0.0722
@<TRIPOS>BOND
     1    24    25    1
     2    25    18    1
     3    18    19   ar
     4    19    20   ar
     5    20     1    1
     6     1     2   ar
     7     2     3   ar
     8     3     4   ar
     9     4     5   ar
    10     5     6   ar
    11     6    11    1
    12    11    12   ar
    13    12    13   ar
    14    13    14   ar
    15    14    15    1
    16    14    16   ar
    17    16    17   ar
    18     6     7   ar
    19     7     8   ar
    20     8     9   ar
    21     9    10    2
    22    20    21   ar
    23    21    22   ar
    24    22    23   ar
    25    23    26    1
    26    26    27    1
    27    27    28    1
    28    28    29    1
    29    29    30    1
    30    30    31    1
    31    31    32    1
    32    32    33    1
    33    23    18   ar
    34    33    29    1
    35     9     1   ar
    36     8     4   ar
    37    17    11   ar
