@<TRIPOS>MOLECULE
*****
 30 33 0 0 0
SMALL
GASTEIGER

@<TRIPOS>ATOM
      1 C         140.3610  138.6735  158.6417 C.ar    1  UNL1        0.1453
      2 C         139.6665  138.0858  157.4491 C.ar    1  UNL1        0.0372
      3 C         140.4241  137.2085  156.4969 C.ar    1  UNL1        0.0002
      4 C         141.8761  136.9190  156.7374 C.ar    1  UNL1       -0.0059
      5 C         142.5706  137.5067  157.9300 C.ar    1  UNL1        0.0002
      6 C         141.8131  138.3839  158.8821 C.ar    1  UNL1        0.0372
      7 O         139.6035  139.5507  159.5938 O.3     1  UNL1       -0.4535
      8 C         139.6044  138.6202  163.9965 C.ar    1  UNL1        0.1470
      9 C         138.8548  137.7372  163.0435 C.ar    1  UNL1        0.0403
     10 C         138.8545  138.0474  161.5759 C.ar    1  UNL1        0.0406
     11 C         139.6038  139.2406  161.0614 C.ar    1  UNL1        0.1455
     12 C         140.3535  140.1235  162.0144 C.ar    1  UNL1        0.0406
     13 C         140.3538  139.8134  163.4820 C.ar    1  UNL1        0.0403
     14 O         139.6048  138.3100  165.4641 O.3     1  UNL1       -0.4045
     15 F         137.1016  138.6794  167.0759 F       1  UNL1       -0.1328
     16 C         138.3532  138.4947  166.2700 C.3     1  UNL1        0.5753
     17 F         138.0717  137.0248  166.1696 F       1  UNL1       -0.1328
     18 F         138.6347  139.9646  166.3704 F       1  UNL1       -0.1328
     19 C         142.6336  136.0417  155.7852 C.3     1  UNL1        0.0992
     20 N         142.8552  134.5948  156.1131 N.3     1  UNL1       -0.2688
     21 C         143.9514  134.1991  157.0574 C.3     1  UNL1        0.0748
     22 C         144.1730  132.7522  157.3852 C.3     1  UNL1        0.0446
     23 C         143.2984  131.7011  156.7687 C.3     1  UNL1        0.0954
     24 C         144.3946  131.3054  157.7130 C.3     1  UNL1        0.0274
     25 C         144.6161  129.8585  158.0408 C.3     1  UNL1        0.0050
     26 C         143.7416  128.8074  157.4242 C.3     1  UNL1        0.0321
     27 C         142.6454  129.2030  156.4799 C.3     1  UNL1        0.1419
     28 O         142.4238  130.6499  156.1521 O.3     1  UNL1       -0.3584
     29 C         142.2022  132.0968  155.8243 C.3     1  UNL1        0.0446
     30 C         141.9806  133.5437  155.4965 C.3     1  UNL1        0.0748
@<TRIPOS>BOND
     1    15    16    1
     2    16    17    1
     3    16    18    1
     4    16    14    1
     5    14     8    1
     6     8     9   ar
     7     9    10   ar
     8    10    11   ar
     9    11     7    1
    10     7     1    1
    11     1     2   ar
    12     2     3   ar
    13     3     4   ar
    14     4    19    1
    15    19    20    1
    16    20    21    1
    17    21    22    1
    18    22    23    1
    19    23    24    1
    20    24    25    1
    21    25    26    1
    22    26    27    1
    23    27    28    1
    24    23    29    1
    25    29    30    1
    26     4     5   ar
    27     5     6   ar
    28    11    12   ar
    29    12    13   ar
    30    13     8   ar
    31     6     1   ar
    32    30    20    1
    33    28    23    1
@<TRIPOS>MOLECULE
*****
 30 33 0 0 0
SMALL
GASTEIGER

@<TRIPOS>ATOM
      1 C         138.8661  138.7150  163.5206 C.ar    1  UNL1        0.1453
      2 C         138.3430  139.9961  162.9416 C.ar    1  UNL1        0.0372
      3 C         138.7039  140.3879  161.5393 C.ar    1  UNL1        0.0002
      4 C         139.5877  139.4985  160.7161 C.ar    1  UNL1       -0.0059
      5 C         140.1108  138.2174  161.2950 C.ar    1  UNL1        0.0002
      6 C         139.7500  137.8257  162.6973 C.ar    1  UNL1        0.0372
      7 O         138.5053  138.3233  164.9228 O.3     1  UNL1       -0.4535
      8 C         140.2278  140.5917  168.4067 C.ar    1  UNL1        0.1470
      9 C         138.9120  139.8855  168.5483 C.ar    1  UNL1        0.0403
     10 C         138.3378  139.1294  167.3870 C.ar    1  UNL1        0.0406
     11 C         139.0794  139.0794  166.0841 C.ar    1  UNL1        0.1455
     12 C         140.3952  139.7856  165.9425 C.ar    1  UNL1        0.0406
     13 C         140.9693  140.5417  167.1038 C.ar    1  UNL1        0.0403
     14 O         140.8019  141.3478  169.5680 O.3     1  UNL1       -0.4045
     15 F         140.4042  144.3145  169.7705 F       1  UNL1       -0.1328
     16 C         140.6031  142.8311  169.6693 C.3     1  UNL1        0.5753
     17 F         139.3058  142.6081  170.3885 F       1  UNL1       -0.1328
     18 F         141.9003  143.0542  168.9500 F       1  UNL1       -0.1328
     19 C         139.9486  139.8903  159.3138 C.3     1  UNL1        0.0992
     20 N         140.5771  138.8868  158.3929 N.3     1  UNL1       -0.2688
     21 C         139.7256  138.1219  157.4235 C.3     1  UNL1        0.0748
     22 C         140.3542  137.1184  156.5026 C.3     1  UNL1        0.0446
     23 C         141.8343  136.8799  156.5511 C.3     1  UNL1        0.0954
     24 C         140.9827  136.1150  155.5818 C.3     1  UNL1        0.0274
     25 C         141.6113  135.1116  154.6609 C.3     1  UNL1        0.0050
     26 C         143.0915  134.8731  154.7094 C.3     1  UNL1        0.0321
     27 C         143.9430  135.6380  155.6788 C.3     1  UNL1        0.1419
     28 O         143.3144  136.6414  156.5997 O.3     1  UNL1       -0.3584
     29 C         142.6858  137.6449  157.5206 C.3     1  UNL1        0.0446
     30 C         142.0573  138.6483  158.4414 C.3     1  UNL1        0.0748
@<TRIPOS>BOND
     1    15    16    1
     2    16    17    1
     3    16    18    1
     4    16    14    1
     5    14     8    1
     6     8     9   ar
     7     9    10   ar
     8    10    11   ar
     9    11     7    1
    10     7     1    1
    11     1     2   ar
    12     2     3   ar
    13     3     4   ar
    14     4    19    1
    15    19    20    1
    16    20    21    1
    17    21    22    1
    18    22    23    1
    19    23    24    1
    20    24    25    1
    21    25    26    1
    22    26    27    1
    23    27    28    1
    24    23    29    1
    25    29    30    1
    26     4     5   ar
    27     5     6   ar
    28    11    12   ar
    29    12    13   ar
    30    13     8   ar
    31     6     1   ar
    32    30    20    1
    33    28    23    1
@<TRIPOS>MOLECULE
*****
 30 33 0 0 0
SMALL
GASTEIGER

@<TRIPOS>ATOM
      1 C         138.8711  138.7035  163.4912 C.ar    1  UNL1        0.1453
      2 C         138.2784  139.9283  162.8598 C.ar    1  UNL1        0.0372
      3 C         138.6537  140.3053  161.4573 C.ar    1  UNL1        0.0002
      4 C         139.6216  139.4577  160.6862 C.ar    1  UNL1       -0.0059
      5 C         140.2143  138.2330  161.3177 C.ar    1  UNL1        0.0002
      6 C         139.8391  137.8559  162.7201 C.ar    1  UNL1        0.0372
      7 O         138.4959  138.3264  164.8937 O.3     1  UNL1       -0.4535
      8 C         140.2588  140.5681  168.3746 C.ar    1  UNL1        0.1470
      9 C         138.9293  139.8882  168.5163 C.ar    1  UNL1        0.0403
     10 C         138.3417  139.1409  167.3560 C.ar    1  UNL1        0.0406
     11 C         139.0835  139.0737  166.0540 C.ar    1  UNL1        0.1455
     12 C         140.4130  139.7536  165.9124 C.ar    1  UNL1        0.0406
     13 C         141.0006  140.5009  167.0727 C.ar    1  UNL1        0.0403
     14 O         140.8464  141.3153  169.5349 O.3     1  UNL1       -0.4045
     15 F         140.4382  144.2779  169.7730 F       1  UNL1       -0.1328
     16 C         140.6423  142.7966  169.6540 C.3     1  UNL1        0.5753
     17 F         139.3202  142.5607  170.3221 F       1  UNL1       -0.1328
     18 F         141.9644  143.0325  168.9859 F       1  UNL1       -0.1328
     19 C         139.9968  139.8348  159.2838 C.3     1  UNL1        0.0992
     20 N         140.5850  138.8073  158.3627 N.3     1  UNL1       -0.2688
     21 C         142.0536  138.5068  158.4142 C.3     1  UNL1        0.0748
     22 C         142.6417  137.4793  157.4931 C.3     1  UNL1        0.0446
     23 C         141.7611  136.7523  156.5205 C.3     1  UNL1        0.0954
     24 C         143.2298  136.4518  156.5720 C.3     1  UNL1        0.0274
     25 C         143.8178  135.4243  155.6509 C.3     1  UNL1        0.0050
     26 C         142.9372  134.6973  154.6783 C.3     1  UNL1        0.0321
     27 C         141.4685  134.9978  154.6267 C.3     1  UNL1        0.1419
     28 O         140.8805  136.0253  155.5478 O.3     1  UNL1       -0.3584
     29 C         140.2924  137.0528  156.4690 C.3     1  UNL1        0.0446
     30 C         139.7043  138.0803  157.3900 C.3     1  UNL1        0.0748
@<TRIPOS>BOND
     1    15    16    1
     2    16    17    1
     3    16    18    1
     4    16    14    1
     5    14     8    1
     6     8     9   ar
     7     9    10   ar
     8    10    11   ar
     9    11     7    1
    10     7     1    1
    11     1     2   ar
    12     2     3   ar
    13     3     4   ar
    14     4    19    1
    15    19    20    1
    16    20    21    1
    17    21    22    1
    18    22    23    1
    19    23    24    1
    20    24    25    1
    21    25    26    1
    22    26    27    1
    23    27    28    1
    24    23    29    1
    25    29    30    1
    26     4     5   ar
    27     5     6   ar
    28    11    12   ar
    29    12    13   ar
    30    13     8   ar
    31     6     1   ar
    32    30    20    1
    33    28    23    1
@<TRIPOS>MOLECULE
*****
 30 33 0 0 0
SMALL
GASTEIGER

@<TRIPOS>ATOM
      1 C         138.7165  139.0058  164.4150 C.ar    1  UNL1        0.1453
      2 C         138.0227  139.7955  163.3449 C.ar    1  UNL1        0.0372
      3 C         138.3640  139.5653  161.9025 C.ar    1  UNL1        0.0002
      4 C         139.3990  138.5454  161.5301 C.ar    1  UNL1       -0.0059
      5 C         140.0927  137.7557  162.6002 C.ar    1  UNL1        0.0002
      6 C         139.7515  137.9859  164.0426 C.ar    1  UNL1        0.0372
      7 O         138.3753  139.2359  165.8574 O.3     1  UNL1       -0.4535
      8 C         140.8744  142.0344  168.3419 C.ar    1  UNL1        0.1470
      9 C         140.2092  140.8530  168.9834 C.ar    1  UNL1        0.0403
     10 C         139.3762  139.9201  168.1552 C.ar    1  UNL1        0.0406
     11 C         139.2083  140.1688  166.6856 C.ar    1  UNL1        0.1455
     12 C         139.8735  141.3503  166.0441 C.ar    1  UNL1        0.0406
     13 C         140.7066  142.2831  166.8722 C.ar    1  UNL1        0.0403
     14 O         141.7075  142.9673  169.1700 O.3     1  UNL1       -0.4045
     15 F         144.4259  142.1162  170.1111 F       1  UNL1       -0.1328
     16 C         143.0667  142.5418  169.6406 C.3     1  UNL1        0.5753
     17 F         142.5564  142.4695  171.0493 F       1  UNL1       -0.1328
     18 F         143.5769  142.6140  168.2320 F       1  UNL1       -0.1328
     19 C         139.7401  138.3153  160.0877 C.3     1  UNL1        0.0992
     20 N         140.9112  139.0221  159.4720 N.3     1  UNL1       -0.2688
     21 C         141.3146  140.3786  159.9692 C.3     1  UNL1        0.0748
     22 C         142.4857  141.0854  159.3534 C.3     1  UNL1        0.0446
     23 C         143.2533  140.4357  158.2405 C.3     1  UNL1        0.0954
     24 C         143.6567  141.7921  158.7377 C.3     1  UNL1        0.0274
     25 C         144.8277  142.4989  158.1220 C.3     1  UNL1        0.0050
     26 C         145.5954  141.8491  157.0091 C.3     1  UNL1        0.0321
     27 C         145.1920  140.4927  156.5119 C.3     1  UNL1        0.1419
     28 O         144.0210  139.7859  157.1276 O.3     1  UNL1       -0.3584
     29 C         142.8499  139.0791  157.7434 C.3     1  UNL1        0.0446
     30 C         141.6789  138.3724  158.3591 C.3     1  UNL1        0.0748
@<TRIPOS>BOND
     1    15    16    1
     2    16    17    1
     3    16    18    1
     4    16    14    1
     5    14     8    1
     6     8     9   ar
     7     9    10   ar
     8    10    11   ar
     9    11     7    1
    10     7     1    1
    11     1     2   ar
    12     2     3   ar
    13     3     4   ar
    14     4    19    1
    15    19    20    1
    16    20    21    1
    17    21    22    1
    18    22    23    1
    19    23    24    1
    20    24    25    1
    21    25    26    1
    22    26    27    1
    23    27    28    1
    24    23    29    1
    25    29    30    1
    26     4     5   ar
    27     5     6   ar
    28    11    12   ar
    29    12    13   ar
    30    13     8   ar
    31     6     1   ar
    32    30    20    1
    33    28    23    1
@<TRIPOS>MOLECULE
*****
 30 33 0 0 0
SMALL
GASTEIGER

@<TRIPOS>ATOM
      1 C         138.8860  139.1469  163.2772 C.ar    1  UNL1        0.1453
      2 C         138.7595  137.9927  162.3276 C.ar    1  UNL1        0.0372
      3 C         139.0103  138.1957  160.8627 C.ar    1  UNL1        0.0002
      4 C         139.3876  139.5530  160.3474 C.ar    1  UNL1       -0.0059
      5 C         139.5141  140.7072  161.2970 C.ar    1  UNL1        0.0002
      6 C         139.2633  140.5042  162.7619 C.ar    1  UNL1        0.0372
      7 O         138.6352  138.9439  164.7420 O.3     1  UNL1       -0.4535
      8 C         141.9302  139.6927  167.7139 C.ar    1  UNL1        0.1470
      9 C         142.2395  139.0377  166.4005 C.ar    1  UNL1        0.0403
     10 C         141.1411  138.7881  165.4098 C.ar    1  UNL1        0.0406
     11 C         139.7335  139.1935  165.7327 C.ar    1  UNL1        0.1455
     12 C         139.4243  139.8485  167.0462 C.ar    1  UNL1        0.0406
     13 C         140.5226  140.0981  168.0368 C.ar    1  UNL1        0.0403
     14 O         143.0286  139.9423  168.7046 O.3     1  UNL1       -0.4045
     15 F         142.3617  140.4810  171.5795 F       1  UNL1       -0.1328
     16 C         142.6952  140.2116  170.1420 C.3     1  UNL1        0.5753
     17 F         142.5054  138.7418  170.3734 F       1  UNL1       -0.1328
     18 F         142.8849  141.6815  169.9106 F       1  UNL1       -0.1328
     19 C         139.6384  139.7560  158.8826 C.3     1  UNL1        0.0992
     20 N         140.3436  138.6966  158.0885 N.3     1  UNL1       -0.2688
     21 C         139.6154  137.9660  156.9996 C.3     1  UNL1        0.0748
     22 C         140.3206  136.9067  156.2055 C.3     1  UNL1        0.0446
     23 C         141.7542  136.5780  156.5004 C.3     1  UNL1        0.0954
     24 C         141.0259  135.8474  155.4115 C.3     1  UNL1        0.0274
     25 C         141.7311  134.7881  154.6175 C.3     1  UNL1        0.0050
     26 C         143.1647  134.4595  154.9124 C.3     1  UNL1        0.0321
     27 C         143.8930  135.1901  156.0013 C.3     1  UNL1        0.1419
     28 O         143.1877  136.2494  156.7953 O.3     1  UNL1       -0.3584
     29 C         142.4824  137.3087  157.5894 C.3     1  UNL1        0.0446
     30 C         141.7772  138.3680  158.3834 C.3     1  UNL1        0.0748
@<TRIPOS>BOND
     1    15    16    1
     2    16    17    1
     3    16    18    1
     4    16    14    1
     5    14     8    1
     6     8     9   ar
     7     9    10   ar
     8    10    11   ar
     9    11     7    1
    10     7     1    1
    11     1     2   ar
    12     2     3   ar
    13     3     4   ar
    14     4    19    1
    15    19    20    1
    16    20    21    1
    17    21    22    1
    18    22    23    1
    19    23    24    1
    20    24    25    1
    21    25    26    1
    22    26    27    1
    23    27    28    1
    24    23    29    1
    25    29    30    1
    26     4     5   ar
    27     5     6   ar
    28    11    12   ar
    29    12    13   ar
    30    13     8   ar
    31     6     1   ar
    32    30    20    1
    33    28    23    1
@<TRIPOS>MOLECULE
*****
 30 33 0 0 0
SMALL
GASTEIGER

@<TRIPOS>ATOM
      1 C         138.9744  139.2178  160.9604 C.ar    1  UNL1        0.1453
      2 C         139.5934  137.9865  161.5528 C.ar    1  UNL1        0.0372
      3 C         139.5043  137.7385  163.0295 C.ar    1  UNL1        0.0002
      4 C         138.7963  138.7217  163.9137 C.ar    1  UNL1       -0.0059
      5 C         138.1773  139.9530  163.3214 C.ar    1  UNL1        0.0002
      6 C         138.2664  140.2010  161.8447 C.ar    1  UNL1        0.0372
      7 O         139.0635  139.4658  159.4838 O.3     1  UNL1       -0.4535
      8 C         142.6050  137.9509  157.1572 C.ar    1  UNL1        0.1470
      9 C         142.7865  139.0340  158.1789 C.ar    1  UNL1        0.0403
     10 C         141.6060  139.5390  158.9544 C.ar    1  UNL1        0.0406
     11 C         140.2440  138.9609  158.7083 C.ar    1  UNL1        0.1455
     12 C         140.0625  137.8777  157.6866 C.ar    1  UNL1        0.0406
     13 C         141.2430  137.3728  156.9111 C.ar    1  UNL1        0.0403
     14 O         143.7855  137.4459  156.3817 O.3     1  UNL1       -0.4045
     15 F         143.4417  135.2067  154.4151 F       1  UNL1       -0.1328
     16 C         143.6136  136.3263  155.3984 C.3     1  UNL1        0.5753
     17 F         143.2530  137.3180  154.3324 F       1  UNL1       -0.1328
     18 F         143.9742  135.3347  156.4645 F       1  UNL1       -0.1328
     19 C         138.7072  138.4737  165.3904 C.3     1  UNL1        0.0992
     20 N         139.5091  139.3120  166.3414 N.3     1  UNL1       -0.2688
     21 C         140.8630  139.8163  165.9384 C.3     1  UNL1        0.0748
     22 C         141.6648  140.6546  166.8895 C.3     1  UNL1        0.0446
     23 C         141.1126  140.9885  168.2436 C.3     1  UNL1        0.0954
     24 C         142.4665  141.4928  167.8405 C.3     1  UNL1        0.0274
     25 C         143.2682  142.3310  168.7916 C.3     1  UNL1        0.0050
     26 C         142.7160  142.6650  170.1456 C.3     1  UNL1        0.0321
     27 C         141.3621  142.1607  170.5487 C.3     1  UNL1        0.1419
     28 O         140.5604  141.3224  169.5976 O.3     1  UNL1       -0.3584
     29 C         139.7586  140.4841  168.6466 C.3     1  UNL1        0.0446
     30 C         138.9568  139.6459  167.6955 C.3     1  UNL1        0.0748
@<TRIPOS>BOND
     1    15    16    1
     2    16    17    1
     3    16    18    1
     4    16    14    1
     5    14     8    1
     6     8     9   ar
     7     9    10   ar
     8    10    11   ar
     9    11     7    1
    10     7     1    1
    11     1     2   ar
    12     2     3   ar
    13     3     4   ar
    14     4    19    1
    15    19    20    1
    16    20    21    1
    17    21    22    1
    18    22    23    1
    19    23    24    1
    20    24    25    1
    21    25    26    1
    22    26    27    1
    23    27    28    1
    24    23    29    1
    25    29    30    1
    26     4     5   ar
    27     5     6   ar
    28    11    12   ar
    29    12    13   ar
    30    13     8   ar
    31     6     1   ar
    32    30    20    1
    33    28    23    1
@<TRIPOS>MOLECULE
*****
 30 33 0 0 0
SMALL
GASTEIGER

@<TRIPOS>ATOM
      1 C         142.1694  136.7084  156.7222 C.ar    1  UNL1        0.1453
      2 C         140.7486  136.8084  156.2518 C.ar    1  UNL1        0.0372
      3 C         139.7855  137.7135  156.9614 C.ar    1  UNL1        0.0002
      4 C         140.2433  138.5186  158.1413 C.ar    1  UNL1       -0.0059
      5 C         141.6641  138.4187  158.6117 C.ar    1  UNL1        0.0002
      6 C         142.6271  137.5136  157.9022 C.ar    1  UNL1        0.0372
      7 O         143.1324  135.8034  156.0128 O.3     1  UNL1       -0.4535
      8 C         143.0865  131.3797  156.8365 C.ar    1  UNL1        0.1470
      9 C         144.0774  132.2625  157.5356 C.ar    1  UNL1        0.0403
     10 C         144.0927  133.7371  157.2610 C.ar    1  UNL1        0.0406
     11 C         143.1171  134.3288  156.2874 C.ar    1  UNL1        0.1455
     12 C         142.1262  133.4460  155.5883 C.ar    1  UNL1        0.0406
     13 C         142.1109  131.9714  155.8629 C.ar    1  UNL1        0.0403
     14 O         143.0712  129.9051  157.1111 O.3     1  UNL1       -0.4045
     15 F         145.3545  128.6291  158.5803 F       1  UNL1       -0.1328
     16 C         144.2128  129.2671  157.8457 C.3     1  UNL1        0.5753
     17 F         143.3964  129.2552  159.1040 F       1  UNL1       -0.1328
     18 F         145.0291  129.2790  156.5874 F       1  UNL1       -0.1328
     19 C         139.2802  139.4236  158.8507 C.3     1  UNL1        0.0992
     20 N         139.1263  139.3353  160.3402 N.3     1  UNL1       -0.2688
     21 C         139.1241  137.9961  161.0159 C.3     1  UNL1        0.0748
     22 C         138.9702  137.9078  162.5054 C.3     1  UNL1        0.0446
     23 C         138.8185  139.1586  163.3192 C.3     1  UNL1        0.0954
     24 C         138.8163  137.8195  163.9948 C.3     1  UNL1        0.0274
     25 C         138.6624  137.7312  165.4843 C.3     1  UNL1        0.0050
     26 C         138.5107  138.9821  166.2981 C.3     1  UNL1        0.0321
     27 C         138.5130  140.3212  165.6224 C.3     1  UNL1        0.1419
     28 O         138.6669  140.4095  164.1330 O.3     1  UNL1       -0.3584
     29 C         138.8208  140.4979  162.6435 C.3     1  UNL1        0.0446
     30 C         138.9747  140.5862  161.1540 C.3     1  UNL1        0.0748
@<TRIPOS>BOND
     1    15    16    1
     2    16    17    1
     3    16    18    1
     4    16    14    1
     5    14     8    1
     6     8     9   ar
     7     9    10   ar
     8    10    11   ar
     9    11     7    1
    10     7     1    1
    11     1     2   ar
    12     2     3   ar
    13     3     4   ar
    14     4    19    1
    15    19    20    1
    16    20    21    1
    17    21    22    1
    18    22    23    1
    19    23    24    1
    20    24    25    1
    21    25    26    1
    22    26    27    1
    23    27    28    1
    24    23    29    1
    25    29    30    1
    26     4     5   ar
    27     5     6   ar
    28    11    12   ar
    29    12    13   ar
    30    13     8   ar
    31     6     1   ar
    32    30    20    1
    33    28    23    1
@<TRIPOS>MOLECULE
*****
 30 33 0 0 0
SMALL
GASTEIGER

@<TRIPOS>ATOM
      1 C         142.3082  136.8829  156.8963 C.ar    1  UNL1        0.1453
      2 C         142.7199  137.7130  158.0759 C.ar    1  UNL1        0.0372
      3 C         141.7094  138.5701  158.7791 C.ar    1  UNL1        0.0002
      4 C         140.2874  138.5972  158.3027 C.ar    1  UNL1       -0.0059
      5 C         139.8757  137.7671  157.1231 C.ar    1  UNL1        0.0002
      6 C         140.8861  136.9100  156.4199 C.ar    1  UNL1        0.0372
      7 O         143.3186  136.0259  156.1931 O.3     1  UNL1       -0.4535
      8 C         142.2091  131.8732  154.8609 C.ar    1  UNL1        0.1470
      9 C         142.2797  132.9882  153.8600 C.ar    1  UNL1        0.0403
     10 C         142.6495  134.3724  154.3041 C.ar    1  UNL1        0.0406
     11 C         142.9487  134.6416  155.7490 C.ar    1  UNL1        0.1455
     12 C         142.8781  133.5267  156.7499 C.ar    1  UNL1        0.0406
     13 C         142.5083  132.1425  156.3058 C.ar    1  UNL1        0.0403
     14 O         141.8392  130.4890  154.4168 O.3     1  UNL1       -0.4045
     15 F         139.3084  129.2209  155.4103 F       1  UNL1       -0.1328
     16 C         140.5739  129.8550  154.9136 C.3     1  UNL1        0.5753
     17 F         141.3779  128.9172  155.7645 F       1  UNL1       -0.1328
     18 F         139.7699  130.7927  154.0626 F       1  UNL1       -0.1328
     19 C         139.2770  139.4542  159.0059 C.3     1  UNL1        0.0992
     20 N         139.0809  139.3205  160.4870 N.3     1  UNL1       -0.2688
     21 C         139.1957  137.9751  161.1403 C.3     1  UNL1        0.0748
     22 C         138.9996  137.8414  162.6214 C.3     1  UNL1        0.0446
     23 C         138.6887  139.0530  163.4492 C.3     1  UNL1        0.0954
     24 C         138.8035  137.7077  164.1025 C.3     1  UNL1        0.0274
     25 C         138.6074  137.5740  165.5836 C.3     1  UNL1        0.0050
     26 C         138.2964  138.7856  166.4114 C.3     1  UNL1        0.0321
     27 C         138.1816  140.1309  165.7581 C.3     1  UNL1        0.1419
     28 O         138.3777  140.2646  164.2770 O.3     1  UNL1       -0.3584
     29 C         138.5738  140.3984  162.7959 C.3     1  UNL1        0.0446
     30 C         138.7700  140.5321  161.3148 C.3     1  UNL1        0.0748
@<TRIPOS>BOND
     1    15    16    1
     2    16    17    1
     3    16    18    1
     4    16    14    1
     5    14     8    1
     6     8     9   ar
     7     9    10   ar
     8    10    11   ar
     9    11     7    1
    10     7     1    1
    11     1     2   ar
    12     2     3   ar
    13     3     4   ar
    14     4    19    1
    15    19    20    1
    16    20    21    1
    17    21    22    1
    18    22    23    1
    19    23    24    1
    20    24    25    1
    21    25    26    1
    22    26    27    1
    23    27    28    1
    24    23    29    1
    25    29    30    1
    26     4     5   ar
    27     5     6   ar
    28    11    12   ar
    29    12    13   ar
    30    13     8   ar
    31     6     1   ar
    32    30    20    1
    33    28    23    1
@<TRIPOS>MOLECULE
*****
 30 33 0 0 0
SMALL
GASTEIGER

@<TRIPOS>ATOM
      1 C         140.2545  138.9450  158.9752 C.ar    1  UNL1        0.1453
      2 C         141.7055  138.7908  159.3227 C.ar    1  UNL1        0.0372
      3 C         142.6044  137.9726  158.4436 C.ar    1  UNL1        0.0002
      4 C         142.0521  137.3086  157.2172 C.ar    1  UNL1       -0.0059
      5 C         140.6011  137.4628  156.8698 C.ar    1  UNL1        0.0002
      6 C         139.7023  138.2810  157.7488 C.ar    1  UNL1        0.0372
      7 O         139.3557  139.7632  159.8542 O.3     1  UNL1       -0.4535
      8 C         138.6404  138.5201  164.1196 C.ar    1  UNL1        0.1470
      9 C         139.2692  137.5599  163.1539 C.ar    1  UNL1        0.0403
     10 C         139.5077  137.9743  161.7321 C.ar    1  UNL1        0.0406
     11 C         139.1173  139.3489  161.2760 C.ar    1  UNL1        0.1455
     12 C         138.4884  140.3091  162.2417 C.ar    1  UNL1        0.0406
     13 C         138.2500  139.8947  163.6634 C.ar    1  UNL1        0.0403
     14 O         138.4019  138.1058  165.5413 O.3     1  UNL1       -0.4045
     15 F         139.1803  139.9355  167.7877 F       1  UNL1       -0.1328
     16 C         138.7911  139.0206  166.6645 C.3     1  UNL1        0.5753
     17 F         140.1667  139.1518  166.0810 F       1  UNL1       -0.1328
     18 F         137.4155  138.8894  167.2480 F       1  UNL1       -0.1328
     19 C         142.9510  136.4904  156.3382 C.3     1  UNL1        0.0992
     20 N         142.7716  135.0032  156.2592 N.3     1  UNL1       -0.2688
     21 C         141.7573  134.4189  155.3213 C.3     1  UNL1        0.0748
     22 C         141.5779  132.9317  155.2423 C.3     1  UNL1        0.0446
     23 C         142.4129  132.0289  156.1012 C.3     1  UNL1        0.0954
     24 C         141.3986  131.4446  155.1633 C.3     1  UNL1        0.0274
     25 C         141.2193  129.9575  155.0843 C.3     1  UNL1        0.0050
     26 C         142.0543  129.0547  155.9433 C.3     1  UNL1        0.0321
     27 C         143.0686  129.6390  156.8812 C.3     1  UNL1        0.1419
     28 O         143.2479  131.1261  156.9601 O.3     1  UNL1       -0.3584
     29 C         143.4273  132.6133  157.0392 C.3     1  UNL1        0.0446
     30 C         143.6066  134.1004  157.1181 C.3     1  UNL1        0.0748
@<TRIPOS>BOND
     1    15    16    1
     2    16    17    1
     3    16    18    1
     4    16    14    1
     5    14     8    1
     6     8     9   ar
     7     9    10   ar
     8    10    11   ar
     9    11     7    1
    10     7     1    1
    11     1     2   ar
    12     2     3   ar
    13     3     4   ar
    14     4    19    1
    15    19    20    1
    16    20    21    1
    17    21    22    1
    18    22    23    1
    19    23    24    1
    20    24    25    1
    21    25    26    1
    22    26    27    1
    23    27    28    1
    24    23    29    1
    25    29    30    1
    26     4     5   ar
    27     5     6   ar
    28    11    12   ar
    29    12    13   ar
    30    13     8   ar
    31     6     1   ar
    32    30    20    1
    33    28    23    1
