@<TRIPOS>MOLECULE
*****
 28 30 0 0 0
SMALL
GASTEIGER

@<TRIPOS>ATOM
      1 C         139.6073  140.3264  167.1621 C.ar    1  UNL1        0.0858
      2 C         140.7598  141.2276  167.4927 C.ar    1  UNL1        0.0399
      3 C         141.0701  141.5543  168.9235 C.ar    1  UNL1        0.1032
      4 N         142.2227  142.4556  169.2541 N.ar    1  UNL1       -0.2405
      5 C         142.5329  142.7821  170.6849 C.ar    1  UNL1        0.1195
      6 C         141.6906  142.2075  171.7850 C.ar    1  UNL1        0.1196
      7 N         140.5381  141.3062  171.4544 N.ar    1  UNL1       -0.2379
      8 C         140.2279  140.9796  170.0237 C.ar    1  UNL1        0.1302
      9 C         139.0753  140.0783  169.6930 C.ar    1  UNL1        0.1477
     10 N         138.7650  139.7517  168.2623 N.ar    1  UNL1       -0.2292
     11 C         138.6766  139.3464  162.8699 C.ar    1  UNL1        0.1318
     12 C         137.9847  140.4938  163.5443 C.ar    1  UNL1        0.0344
     13 C         138.2949  140.8205  164.9750 C.ar    1  UNL1        0.0059
     14 C         139.2970  139.9997  165.7313 C.ar    1  UNL1        0.0370
     15 C         139.9889  138.8523  165.0570 C.ar    1  UNL1        0.1018
     16 N         139.6787  138.5257  163.6262 N.ar    1  UNL1       -0.2291
     17 C         139.2225  138.0419  160.6904 C.3     1  UNL1        0.1136
     18 N         138.3663  139.0198  161.4391 N.pl3   1  UNL1       -0.2897
     19 C         137.1997  139.6711  160.7571 C.3     1  UNL1        0.1136
     20 N         138.2330  139.5036  170.7931 N.pl3   1  UNL1       -0.3169
     21 H         138.5847  139.4617  171.7117 H       1  UNL1        0.1482
     22 C         136.8549  138.9926  170.4937 C.3     1  UNL1        0.0883
     23 C         135.7576  139.1591  171.5028 C.3     1  UNL1        0.0226
     24 C         135.6743  138.2330  172.6799 C.3     1  UNL1        0.0186
     25 C         136.0230  136.7829  172.5194 C.3     1  UNL1        0.0652
     26 N         137.4431  136.3776  172.2570 N.3     1  UNL1       -0.3211
     27 H         137.7323  136.7249  171.3426 H       1  UNL1        0.1189
     28 H         137.5147  135.3602  172.2725 H       1  UNL1        0.1189
@<TRIPOS>BOND
     1    17    18    1
     2    18    19    1
     3    18    11    1
     4    11    12   ar
     5    12    13   ar
     6    13    14   ar
     7    14     1    1
     8     1     2   ar
     9     2     3   ar
    10     3     4   ar
    11     4     5   ar
    12     5     6   ar
    13     6     7   ar
    14     7     8   ar
    15     8     9   ar
    16     9    20    1
    17    20    22    1
    18    22    23    1
    19    23    24    1
    20    24    25    1
    21    25    26    1
    22     9    10   ar
    23    14    15   ar
    24    15    16   ar
    25    16    11   ar
    26    10     1   ar
    27     8     3   ar
    28    20    21    1
    29    26    27    1
    30    26    28    1
@<TRIPOS>MOLECULE
*****
 28 30 0 0 0
SMALL
GASTEIGER

@<TRIPOS>ATOM
      1 C         140.5272  141.9011  166.0771 C.ar    1  UNL1        0.0858
      2 C         141.3200  142.4211  167.2395 C.ar    1  UNL1        0.0399
      3 C         141.1487  141.8087  168.5981 C.ar    1  UNL1        0.1032
      4 N         141.9415  142.3287  169.7604 N.ar    1  UNL1       -0.2405
      5 C         141.7702  141.7163  171.1190 C.ar    1  UNL1        0.1195
      6 C         140.8062  140.5840  171.3151 C.ar    1  UNL1        0.1196
      7 N         140.0134  140.0640  170.1528 N.ar    1  UNL1       -0.2379
      8 C         140.1847  140.6764  168.7943 C.ar    1  UNL1        0.1302
      9 C         139.3919  140.1564  167.6318 C.ar    1  UNL1        0.1477
     10 N         139.5632  140.7688  166.2733 N.ar    1  UNL1       -0.2292
     11 C         141.0408  143.7380  162.0014 C.ar    1  UNL1        0.1318
     12 C         141.8352  144.2567  163.1633 C.ar    1  UNL1        0.0344
     13 C         141.6640  143.6444  164.5218 C.ar    1  UNL1        0.0059
     14 C         140.6984  142.5135  164.7185 C.ar    1  UNL1        0.0370
     15 C         139.9041  141.9949  163.5566 C.ar    1  UNL1        0.1018
     16 N         140.0753  142.6071  162.1980 N.ar    1  UNL1       -0.2291
     17 C         140.3411  145.4966  160.2215 C.3     1  UNL1        0.1136
     18 N         141.2121  144.3504  160.6427 N.pl3   1  UNL1       -0.2897
     19 C         142.2543  143.8165  159.7054 C.3     1  UNL1        0.1136
     20 N         138.4279  139.0241  167.8280 N.pl3   1  UNL1       -0.3169
     21 H         138.2578  138.6735  168.7321 H       1  UNL1        0.1482
     22 C         137.7230  138.4260  166.6467 C.3     1  UNL1        0.0883
     23 C         138.3768  137.3294  165.8595 C.3     1  UNL1        0.0226
     24 C         139.1870  137.6610  164.6414 C.3     1  UNL1        0.0186
     25 C         140.6733  137.4588  164.6513 C.3     1  UNL1        0.0652
     26 N         141.5676  138.4987  165.2587 N.3     1  UNL1       -0.3211
     27 H         141.5156  139.3556  164.7079 H       1  UNL1        0.1189
     28 H         142.5288  138.1576  165.2669 H       1  UNL1        0.1189
@<TRIPOS>BOND
     1    17    18    1
     2    18    19    1
     3    18    11    1
     4    11    12   ar
     5    12    13   ar
     6    13    14   ar
     7    14     1    1
     8     1     2   ar
     9     2     3   ar
    10     3     4   ar
    11     4     5   ar
    12     5     6   ar
    13     6     7   ar
    14     7     8   ar
    15     8     9   ar
    16     9    20    1
    17    20    22    1
    18    22    23    1
    19    23    24    1
    20    24    25    1
    21    25    26    1
    22     9    10   ar
    23    14    15   ar
    24    15    16   ar
    25    16    11   ar
    26    10     1   ar
    27     8     3   ar
    28    20    21    1
    29    26    27    1
    30    26    28    1
@<TRIPOS>MOLECULE
*****
 28 30 0 0 0
SMALL
GASTEIGER

@<TRIPOS>ATOM
      1 C         139.3756  141.9493  164.5340 C.ar    1  UNL1        0.0858
      2 C         139.3403  140.8140  163.5543 C.ar    1  UNL1        0.0399
      3 C         138.9896  141.0725  162.1190 C.ar    1  UNL1        0.1032
      4 N         138.9543  139.9372  161.1393 N.ar    1  UNL1       -0.2405
      5 C         138.6036  140.1957  159.7040 C.ar    1  UNL1        0.1195
      6 C         138.2881  141.5896  159.2484 C.ar    1  UNL1        0.1196
      7 N         138.3233  142.7249  160.2281 N.ar    1  UNL1       -0.2379
      8 C         138.6741  142.4664  161.6633 C.ar    1  UNL1        0.1302
      9 C         138.7093  143.6017  162.6431 C.ar    1  UNL1        0.1477
     10 N         139.0601  143.3432  164.0784 N.ar    1  UNL1       -0.2292
     11 C         140.4278  141.1737  168.8399 C.ar    1  UNL1        0.1318
     12 C         140.7083  142.5147  168.2291 C.ar    1  UNL1        0.0344
     13 C         140.3575  142.7733  166.7939 C.ar    1  UNL1        0.0059
     14 C         139.7263  141.6908  165.9694 C.ar    1  UNL1        0.0370
     15 C         139.4458  140.3498  166.5802 C.ar    1  UNL1        0.1018
     16 N         139.7965  140.0913  168.0155 N.ar    1  UNL1       -0.2291
     17 C         141.8547  141.7205  170.9412 C.3     1  UNL1        0.1136
     18 N         140.7785  140.9152  170.2753 N.pl3   1  UNL1       -0.2897
     19 C         140.0531  139.8514  171.0448 C.3     1  UNL1        0.1136
     20 N         138.3939  144.9956  162.1874 N.pl3   1  UNL1       -0.3169
     21 H         137.4605  145.2583  162.0167 H       1  UNL1        0.1482
     22 C         139.5004  145.9892  161.9919 C.3     1  UNL1        0.0883
     23 C         140.9304  145.5519  162.1086 C.3     1  UNL1        0.0226
     24 C         141.6149  145.5738  163.4432 C.3     1  UNL1        0.0186
     25 C         142.9294  144.8740  163.6235 C.3     1  UNL1        0.0652
     26 N         144.0683  145.1659  162.6920 N.3     1  UNL1       -0.3211
     27 H         143.8310  144.8442  161.7536 H       1  UNL1        0.1189
     28 H         144.9053  144.6812  163.0160 H       1  UNL1        0.1189
@<TRIPOS>BOND
     1    17    18    1
     2    18    19    1
     3    18    11    1
     4    11    12   ar
     5    12    13   ar
     6    13    14   ar
     7    14     1    1
     8     1     2   ar
     9     2     3   ar
    10     3     4   ar
    11     4     5   ar
    12     5     6   ar
    13     6     7   ar
    14     7     8   ar
    15     8     9   ar
    16     9    20    1
    17    20    22    1
    18    22    23    1
    19    23    24    1
    20    24    25    1
    21    25    26    1
    22     9    10   ar
    23    14    15   ar
    24    15    16   ar
    25    16    11   ar
    26    10     1   ar
    27     8     3   ar
    28    20    21    1
    29    26    27    1
    30    26    28    1
@<TRIPOS>MOLECULE
*****
 28 30 0 0 0
SMALL
GASTEIGER

@<TRIPOS>ATOM
      1 C         140.7442  142.7889  164.0212 C.ar    1  UNL1        0.0858
      2 C         141.4368  143.7699  163.1224 C.ar    1  UNL1        0.0399
      3 C         140.9513  143.9723  161.7176 C.ar    1  UNL1        0.1032
      4 N         141.6439  144.9532  160.8187 N.ar    1  UNL1       -0.2405
      5 C         141.1584  145.1556  159.4140 C.ar    1  UNL1        0.1195
      6 C         139.9802  144.3771  158.9082 C.ar    1  UNL1        0.1196
      7 N         139.2876  143.3962  159.8070 N.ar    1  UNL1       -0.2379
      8 C         139.7731  143.1938  161.2117 C.ar    1  UNL1        0.1302
      9 C         139.0805  142.2128  162.1107 C.ar    1  UNL1        0.1477
     10 N         139.5660  142.0104  163.5154 N.ar    1  UNL1       -0.2292
     11 C         142.2007  142.1816  168.2354 C.ar    1  UNL1        0.1318
     12 C         140.7313  142.3044  167.9601 C.ar    1  UNL1        0.0344
     13 C         140.2458  142.5068  166.5554 C.ar    1  UNL1        0.0059
     14 C         141.2297  142.5865  165.4260 C.ar    1  UNL1        0.0370
     15 C         142.6991  142.4637  165.7013 C.ar    1  UNL1        0.1018
     16 N         143.1846  142.2612  167.1060 N.ar    1  UNL1       -0.2291
     17 C         142.9529  140.5936  170.1492 C.3     1  UNL1        0.1136
     18 N         142.6862  141.9791  169.6402 N.pl3   1  UNL1       -0.2897
     19 C         142.9050  143.1623  170.5360 C.3     1  UNL1        0.1136
     20 N         137.9023  141.4343  161.6048 N.pl3   1  UNL1       -0.3169
     21 H         136.9934  141.8010  161.6978 H       1  UNL1        0.1482
     22 C         138.1090  140.0972  160.9574 C.3     1  UNL1        0.0883
     23 C         137.7513  138.8423  161.6972 C.3     1  UNL1        0.0226
     24 C         138.7896  138.1311  162.5135 C.3     1  UNL1        0.0186
     25 C         140.2116  138.0807  162.0390 C.3     1  UNL1        0.0652
     26 N         141.1536  137.0571  162.6000 N.3     1  UNL1       -0.3211
     27 H         141.3107  137.2459  163.5900 H       1  UNL1        0.1189
     28 H         142.0417  137.1022  162.1002 H       1  UNL1        0.1189
@<TRIPOS>BOND
     1    17    18    1
     2    18    19    1
     3    18    11    1
     4    11    12   ar
     5    12    13   ar
     6    13    14   ar
     7    14     1    1
     8     1     2   ar
     9     2     3   ar
    10     3     4   ar
    11     4     5   ar
    12     5     6   ar
    13     6     7   ar
    14     7     8   ar
    15     8     9   ar
    16     9    20    1
    17    20    22    1
    18    22    23    1
    19    23    24    1
    20    24    25    1
    21    25    26    1
    22     9    10   ar
    23    14    15   ar
    24    15    16   ar
    25    16    11   ar
    26    10     1   ar
    27     8     3   ar
    28    20    21    1
    29    26    27    1
    30    26    28    1
@<TRIPOS>MOLECULE
*****
 28 30 0 0 0
SMALL
GASTEIGER

@<TRIPOS>ATOM
      1 C         140.3776  139.9807  164.5712 C.ar    1  UNL1        0.0858
      2 C         139.2924  140.4684  163.6577 C.ar    1  UNL1        0.0399
      3 C         139.2562  140.0165  162.2278 C.ar    1  UNL1        0.1032
      4 N         138.1710  140.5042  161.3144 N.ar    1  UNL1       -0.2405
      5 C         138.1349  140.0523  159.8845 C.ar    1  UNL1        0.1195
      6 C         139.1840  139.1128  159.3682 C.ar    1  UNL1        0.1196
      7 N         140.2692  138.6251  160.2816 N.ar    1  UNL1       -0.2379
      8 C         140.3053  139.0769  161.7114 C.ar    1  UNL1        0.1302
      9 C         141.3905  138.5892  162.6250 C.ar    1  UNL1        0.1477
     10 N         141.4267  139.0411  164.0548 N.ar    1  UNL1       -0.2292
     11 C         140.4862  141.3363  168.8607 C.ar    1  UNL1        0.1318
     12 C         139.5666  140.2253  168.4483 C.ar    1  UNL1        0.0344
     13 C         139.5304  139.7734  167.0185 C.ar    1  UNL1        0.0059
     14 C         140.4138  140.4326  166.0011 C.ar    1  UNL1        0.0370
     15 C         141.3333  141.5436  166.4135 C.ar    1  UNL1        0.1018
     16 N         141.3695  141.9954  167.8433 N.ar    1  UNL1       -0.2291
     17 C         141.4160  141.0929  171.2745 C.3     1  UNL1        0.1136
     18 N         140.5224  141.7882  170.2907 N.pl3   1  UNL1       -0.2897
     19 C         139.6649  142.9353  170.7366 C.3     1  UNL1        0.1136
     20 N         142.4396  137.6497  162.1086 N.pl3   1  UNL1       -0.3169
     21 H         142.2287  136.6959  161.9855 H       1  UNL1        0.1482
     22 C         143.8100  138.1632  161.7797 C.3     1  UNL1        0.0883
     23 C         144.1949  139.5647  162.1509 C.3     1  UNL1        0.0226
     24 C         144.8039  139.8447  163.4928 C.3     1  UNL1        0.0186
     25 C         145.5405  141.1300  163.7286 C.3     1  UNL1        0.0652
     26 N         145.9207  142.0004  162.5677 N.3     1  UNL1       -0.3211
     27 H         146.6058  141.5148  161.9887 H       1  UNL1        0.1189
     28 H         146.3239  142.8712  162.9134 H       1  UNL1        0.1189
@<TRIPOS>BOND
     1    17    18    1
     2    18    19    1
     3    18    11    1
     4    11    12   ar
     5    12    13   ar
     6    13    14   ar
     7    14     1    1
     8     1     2   ar
     9     2     3   ar
    10     3     4   ar
    11     4     5   ar
    12     5     6   ar
    13     6     7   ar
    14     7     8   ar
    15     8     9   ar
    16     9    20    1
    17    20    22    1
    18    22    23    1
    19    23    24    1
    20    24    25    1
    21    25    26    1
    22     9    10   ar
    23    14    15   ar
    24    15    16   ar
    25    16    11   ar
    26    10     1   ar
    27     8     3   ar
    28    20    21    1
    29    26    27    1
    30    26    28    1
@<TRIPOS>MOLECULE
*****
 28 30 0 0 0
SMALL
GASTEIGER

@<TRIPOS>ATOM
      1 C         141.4421  142.2753  164.6725 C.ar    1  UNL1        0.0858
      2 C         142.4697  142.7079  165.6759 C.ar    1  UNL1        0.0399
      3 C         142.4462  142.1423  167.0651 C.ar    1  UNL1        0.1032
      4 N         143.4738  142.5750  168.0685 N.ar    1  UNL1       -0.2405
      5 C         143.4502  142.0094  169.4575 C.ar    1  UNL1        0.1195
      6 C         142.3992  141.0111  169.8431 C.ar    1  UNL1        0.1196
      7 N         141.3716  140.5785  168.8397 N.ar    1  UNL1       -0.2379
      8 C         141.3951  141.1441  167.4507 C.ar    1  UNL1        0.1302
      9 C         140.3675  140.7114  166.4472 C.ar    1  UNL1        0.1477
     10 N         140.3910  141.2771  165.0581 N.ar    1  UNL1       -0.2292
     11 C         141.5127  143.9721  160.5053 C.ar    1  UNL1        0.1318
     12 C         140.2608  143.3388  161.0361 C.ar    1  UNL1        0.0344
     13 C         140.2373  142.7732  162.4252 C.ar    1  UNL1        0.0059
     14 C         141.4656  142.8409  163.2834 C.ar    1  UNL1        0.0370
     15 C         142.7175  143.4742  162.7525 C.ar    1  UNL1        0.1018
     16 N         142.7410  144.0398  161.3635 N.ar    1  UNL1       -0.2291
     17 C         142.6442  144.1689  158.1748 C.3     1  UNL1        0.1136
     18 N         141.5361  144.5377  159.1162 N.pl3   1  UNL1       -0.2897
     19 C         140.4515  145.4721  158.6684 C.3     1  UNL1        0.1136
     20 N         139.3164  139.7132  166.8328 N.pl3   1  UNL1       -0.3169
     21 H         139.1752  139.4884  167.7809 H       1  UNL1        0.1482
     22 C         138.4804  139.0574  165.7740 C.3     1  UNL1        0.0883
     23 C         138.9736  137.8166  165.0906 C.3     1  UNL1        0.0226
     24 C         138.9402  137.7210  163.5939 C.3     1  UNL1        0.0186
     25 C         140.2016  137.9015  162.8025 C.3     1  UNL1        0.0652
     26 N         141.2811  136.8619  162.8646 N.3     1  UNL1       -0.3211
     27 H         141.6727  136.8342  163.8060 H       1  UNL1        0.1189
     28 H         142.0163  137.0950  162.1972 H       1  UNL1        0.1189
@<TRIPOS>BOND
     1    17    18    1
     2    18    19    1
     3    18    11    1
     4    11    12   ar
     5    12    13   ar
     6    13    14   ar
     7    14     1    1
     8     1     2   ar
     9     2     3   ar
    10     3     4   ar
    11     4     5   ar
    12     5     6   ar
    13     6     7   ar
    14     7     8   ar
    15     8     9   ar
    16     9    20    1
    17    20    22    1
    18    22    23    1
    19    23    24    1
    20    24    25    1
    21    25    26    1
    22     9    10   ar
    23    14    15   ar
    24    15    16   ar
    25    16    11   ar
    26    10     1   ar
    27     8     3   ar
    28    20    21    1
    29    26    27    1
    30    26    28    1
@<TRIPOS>MOLECULE
*****
 28 30 0 0 0
SMALL
GASTEIGER

@<TRIPOS>ATOM
      1 C         142.5846  142.3160  164.1493 C.ar    1  UNL1        0.0858
      2 C         143.3003  141.5237  163.0958 C.ar    1  UNL1        0.0399
      3 C         143.3689  142.0375  161.6881 C.ar    1  UNL1        0.1032
      4 N         144.0846  141.2451  160.6346 N.ar    1  UNL1       -0.2405
      5 C         144.1532  141.7589  159.2271 C.ar    1  UNL1        0.1195
      6 C         143.5060  143.0650  158.8730 C.ar    1  UNL1        0.1196
      7 N         142.7903  143.8573  159.9265 N.ar    1  UNL1       -0.2379
      8 C         142.7217  143.3435  161.3341 C.ar    1  UNL1        0.1302
      9 C         142.0060  144.1359  162.3877 C.ar    1  UNL1        0.1477
     10 N         141.9374  143.6221  163.7953 N.ar    1  UNL1       -0.2292
     11 C         142.3787  140.7748  168.3721 C.ar    1  UNL1        0.1318
     12 C         143.1388  142.0319  168.0688 C.ar    1  UNL1        0.0344
     13 C         143.2074  142.5457  166.6612 C.ar    1  UNL1        0.0059
     14 C         142.5160  141.8023  165.5570 C.ar    1  UNL1        0.0370
     15 C         141.7559  140.5452  165.8603 C.ar    1  UNL1        0.1018
     16 N         141.6873  140.0314  167.2679 N.ar    1  UNL1       -0.2291
     17 C         141.9384  141.1878  170.8991 C.3     1  UNL1        0.1136
     18 N         142.3101  140.2611  169.7798 N.pl3   1  UNL1       -0.2897
     19 C         142.6132  138.8206  170.0680 C.3     1  UNL1        0.1136
     20 N         141.3588  145.4419  162.0336 N.pl3   1  UNL1       -0.3169
     21 H         141.9063  146.2560  161.9503 H       1  UNL1        0.1482
     22 C         139.8776  145.5078  161.8065 C.3     1  UNL1        0.0883
     23 C         138.9332  145.3113  162.9552 C.3     1  UNL1        0.0226
     24 C         138.0962  144.0690  163.0339 C.3     1  UNL1        0.0186
     25 C         138.1944  143.0290  161.9574 C.3     1  UNL1        0.0652
     26 N         137.4336  141.7427  162.0856 N.3     1  UNL1       -0.3211
     27 H         137.7999  141.2081  162.8733 H       1  UNL1        0.1189
     28 H         137.5372  141.1995  161.2285 H       1  UNL1        0.1189
@<TRIPOS>BOND
     1    17    18    1
     2    18    19    1
     3    18    11    1
     4    11    12   ar
     5    12    13   ar
     6    13    14   ar
     7    14     1    1
     8     1     2   ar
     9     2     3   ar
    10     3     4   ar
    11     4     5   ar
    12     5     6   ar
    13     6     7   ar
    14     7     8   ar
    15     8     9   ar
    16     9    20    1
    17    20    22    1
    18    22    23    1
    19    23    24    1
    20    24    25    1
    21    25    26    1
    22     9    10   ar
    23    14    15   ar
    24    15    16   ar
    25    16    11   ar
    26    10     1   ar
    27     8     3   ar
    28    20    21    1
    29    26    27    1
    30    26    28    1
@<TRIPOS>MOLECULE
*****
 28 30 0 0 0
SMALL
GASTEIGER

@<TRIPOS>ATOM
      1 C         142.6720  143.0833  160.2891 C.ar    1  UNL1        0.0858
      2 C         141.1739  143.0384  160.3498 C.ar    1  UNL1        0.0399
      3 C         140.4512  143.6623  161.5068 C.ar    1  UNL1        0.1032
      4 N         138.9531  143.6174  161.5676 N.ar    1  UNL1       -0.2405
      5 C         138.2304  144.2413  162.7245 C.ar    1  UNL1        0.1195
      6 C         139.0058  144.9101  163.8206 C.ar    1  UNL1        0.1196
      7 N         140.5039  144.9550  163.7598 N.ar    1  UNL1       -0.2379
      8 C         141.2266  144.3311  162.6029 C.ar    1  UNL1        0.1302
      9 C         142.7247  144.3760  162.5421 C.ar    1  UNL1        0.1477
     10 N         143.4474  143.7521  161.3852 N.ar    1  UNL1       -0.2292
     11 C         144.8403  141.2118  156.8184 C.ar    1  UNL1        0.1318
     12 C         143.4116  140.8477  157.0946 C.ar    1  UNL1        0.0344
     13 C         142.6888  141.4716  158.2514 C.ar    1  UNL1        0.0059
     14 C         143.3948  142.4594  159.1321 C.ar    1  UNL1        0.0370
     15 C         144.8235  142.8235  158.8560 C.ar    1  UNL1        0.1018
     16 N         145.5462  142.1997  157.6991 N.ar    1  UNL1       -0.2291
     17 C         146.7855  141.2485  155.0965 C.3     1  UNL1        0.1136
     18 N         145.5631  140.5879  155.6615 N.pl3   1  UNL1       -0.2897
     19 C         145.0634  139.3034  155.0696 C.3     1  UNL1        0.1136
     20 N         143.5001  145.0448  163.6383 N.pl3   1  UNL1       -0.3169
     21 H         143.5612  146.0269  163.6694 H       1  UNL1        0.1482
     22 C         144.1823  144.2172  164.6869 C.3     1  UNL1        0.0883
     23 C         143.6550  142.8550  165.0277 C.3     1  UNL1        0.0226
     24 C         144.3472  141.6307  164.5059 C.3     1  UNL1        0.0186
     25 C         145.6748  141.7552  163.8188 C.3     1  UNL1        0.0652
     26 N         145.7342  141.9831  162.3375 N.3     1  UNL1       -0.3211
     27 H         145.3672  141.1642  161.8525 H       1  UNL1        0.1189
     28 H         146.7020  142.1395  162.0561 H       1  UNL1        0.1189
@<TRIPOS>BOND
     1    17    18    1
     2    18    19    1
     3    18    11    1
     4    11    12   ar
     5    12    13   ar
     6    13    14   ar
     7    14     1    1
     8     1     2   ar
     9     2     3   ar
    10     3     4   ar
    11     4     5   ar
    12     5     6   ar
    13     6     7   ar
    14     7     8   ar
    15     8     9   ar
    16     9    20    1
    17    20    22    1
    18    22    23    1
    19    23    24    1
    20    24    25    1
    21    25    26    1
    22     9    10   ar
    23    14    15   ar
    24    15    16   ar
    25    16    11   ar
    26    10     1   ar
    27     8     3   ar
    28    20    21    1
    29    26    27    1
    30    26    28    1
@<TRIPOS>MOLECULE
*****
 28 30 0 0 0
SMALL
GASTEIGER

@<TRIPOS>ATOM
      1 C         141.4251  144.2679  160.5700 C.ar    1  UNL1        0.0858
      2 C         142.7267  143.5443  160.7493 C.ar    1  UNL1        0.0399
      3 C         143.2813  143.3283  162.1262 C.ar    1  UNL1        0.1032
      4 N         144.5829  142.6048  162.3056 N.ar    1  UNL1       -0.2405
      5 C         145.1374  142.3888  163.6825 C.ar    1  UNL1        0.1195
      6 C         144.3903  142.8965  164.8800 C.ar    1  UNL1        0.1196
      7 N         143.0887  143.6201  164.7007 N.ar    1  UNL1       -0.2379
      8 C         142.5342  143.8360  163.3238 C.ar    1  UNL1        0.1302
      9 C         141.2325  144.5597  163.1444 C.ar    1  UNL1        0.1477
     10 N         140.6780  144.7756  161.7675 N.ar    1  UNL1       -0.2292
     11 C         139.7614  144.9156  156.4393 C.ar    1  UNL1        0.1318
     12 C         140.8282  145.8271  156.9696 C.ar    1  UNL1        0.0344
     13 C         141.3828  145.6112  158.3465 C.ar    1  UNL1        0.0059
     14 C         140.8706  144.4838  159.1930 C.ar    1  UNL1        0.0370
     15 C         139.8038  143.5724  158.6627 C.ar    1  UNL1        0.1018
     16 N         139.2492  143.7883  157.2858 N.ar    1  UNL1       -0.2291
     17 C         137.7267  145.2714  154.8634 C.3     1  UNL1        0.1136
     18 N         139.2068  145.1316  155.0624 N.pl3   1  UNL1       -0.2897
     19 C         140.1325  145.2076  153.8845 C.3     1  UNL1        0.1136
     20 N         140.4855  145.0673  164.3419 N.pl3   1  UNL1       -0.3169
     21 H         140.6123  145.9957  164.6441 H       1  UNL1        0.1482
     22 C         139.5451  144.1606  165.0791 C.3     1  UNL1        0.0883
     23 C         138.1121  144.0559  164.6484 C.3     1  UNL1        0.0226
     24 C         137.5677  142.7438  164.1666 C.3     1  UNL1        0.0186
     25 C         137.7260  142.3489  162.7282 C.3     1  UNL1        0.0652
     26 N         137.7071  143.3977  161.6560 N.3     1  UNL1       -0.3211
     27 H         136.7820  143.8252  161.6148 H       1  UNL1        0.1189
     28 H         137.9237  142.9684  160.7565 H       1  UNL1        0.1189
@<TRIPOS>BOND
     1    17    18    1
     2    18    19    1
     3    18    11    1
     4    11    12   ar
     5    12    13   ar
     6    13    14   ar
     7    14     1    1
     8     1     2   ar
     9     2     3   ar
    10     3     4   ar
    11     4     5   ar
    12     5     6   ar
    13     6     7   ar
    14     7     8   ar
    15     8     9   ar
    16     9    20    1
    17    20    22    1
    18    22    23    1
    19    23    24    1
    20    24    25    1
    21    25    26    1
    22     9    10   ar
    23    14    15   ar
    24    15    16   ar
    25    16    11   ar
    26    10     1   ar
    27     8     3   ar
    28    20    21    1
    29    26    27    1
    30    26    28    1
