@<TRIPOS>MOLECULE
*****
 19 20 0 0 0
SMALL
GASTEIGER

@<TRIPOS>ATOM
      1 C         140.5640  140.4364  167.2475 C.ar    1  UNL1        0.0511
      2 C         141.9009  139.8717  166.8683 C.ar    1  UNL1        0.0163
      3 C         142.7793  139.2552  167.9163 C.ar    1  UNL1        0.0253
      4 C         142.3208  139.2035  169.3436 C.ar    1  UNL1        0.1365
      5 C         140.9840  139.7682  169.7228 C.ar    1  UNL1        0.1541
      6 O         140.5254  139.7165  171.1501 O.3     1  UNL1       -0.5039
      7 C         140.1055  140.3847  168.6747 C.ar    1  UNL1        0.0527
      8 H         141.0741  139.3314  171.8048 H       1  UNL1        0.2923
      9 C         138.6833  140.2087  165.4696 C.3     1  UNL1        0.1122
     10 N         139.6856  141.0529  166.1995 N.pl3   1  UNL1       -0.3040
     11 C         139.8095  142.5135  165.8813 C.3     1  UNL1        0.1122
     12 N         143.1992  138.5870  170.3916 N.2     1  UNL1       -0.1435
     13 N         143.7223  137.1934  170.2069 N.2     1  UNL1       -0.1284
     14 C         144.6007  136.5769  171.2549 C.ar    1  UNL1        0.1838
     15 C         144.5193  135.1047  171.5306 C.ar    1  UNL1        0.0406
     16 C         145.3977  134.4882  172.5786 C.ar    1  UNL1        0.0048
     17 C         146.3575  135.3440  173.3510 C.ar    1  UNL1        0.0208
     18 C         146.4388  136.8162  173.0754 C.ar    1  UNL1        0.1006
     19 N         145.5604  137.4327  172.0273 N.ar    1  UNL1       -0.2236
@<TRIPOS>BOND
     1     9    10    1
     2    10    11    1
     3    10     1    1
     4     1     2   ar
     5     2     3   ar
     6     3     4   ar
     7     4    12    1
     8    12    13    2
     9    13    14    1
    10    14    15   ar
    11    15    16   ar
    12    16    17   ar
    13    17    18   ar
    14    18    19   ar
    15     4     5   ar
    16     5     6    1
    17     5     7   ar
    18     7     1   ar
    19    19    14   ar
    20     6     8    1
@<TRIPOS>MOLECULE
*****
 19 20 0 0 0
SMALL
GASTEIGER

@<TRIPOS>ATOM
      1 C         140.4354  141.8826  167.3168 C.ar    1  UNL1        0.0511
      2 C         140.5933  142.3347  168.7383 C.ar    1  UNL1        0.0163
      3 C         139.9333  141.5689  169.8465 C.ar    1  UNL1        0.0253
      4 C         139.1155  140.3512  169.5332 C.ar    1  UNL1        0.1365
      5 C         138.9577  139.8991  168.1117 C.ar    1  UNL1        0.1541
      6 O         138.1399  138.6813  167.7983 O.3     1  UNL1       -0.5039
      7 C         139.6176  140.6649  167.0035 C.ar    1  UNL1        0.0527
      8 H         137.7276  138.2029  168.4906 H       1  UNL1        0.2923
      9 C         140.2792  143.5496  165.3301 C.3     1  UNL1        0.1122
     10 N         141.0953  142.6484  166.2085 N.pl3   1  UNL1       -0.3040
     11 C         142.5714  142.5129  165.9788 C.3     1  UNL1        0.1122
     12 N         138.4556  139.5854  170.6414 N.2     1  UNL1       -0.1435
     13 N         137.1430  138.9003  170.4015 N.2     1  UNL1       -0.1284
     14 C         136.4831  138.1346  171.5097 C.ar    1  UNL1        0.1838
     15 C         135.2471  138.6774  172.1639 C.ar    1  UNL1        0.0406
     16 C         134.5872  137.9116  173.2722 C.ar    1  UNL1        0.0048
     17 C         135.1632  136.6031  173.7261 C.ar    1  UNL1        0.0208
     18 C         136.3990  136.0604  173.0719 C.ar    1  UNL1        0.1006
     19 N         137.0590  136.8261  171.9637 N.ar    1  UNL1       -0.2236
@<TRIPOS>BOND
     1     9    10    1
     2    10    11    1
     3    10     1    1
     4     1     2   ar
     5     2     3   ar
     6     3     4   ar
     7     4    12    1
     8    12    13    2
     9    13    14    1
    10    14    15   ar
    11    15    16   ar
    12    16    17   ar
    13    17    18   ar
    14    18    19   ar
    15     4     5   ar
    16     5     6    1
    17     5     7   ar
    18     7     1   ar
    19    19    14   ar
    20     6     8    1
@<TRIPOS>MOLECULE
*****
 19 20 0 0 0
SMALL
GASTEIGER

@<TRIPOS>ATOM
      1 C         138.9712  139.7851  160.5326 C.ar    1  UNL1        0.0511
      2 C         140.1300  139.3647  161.3872 C.ar    1  UNL1        0.0163
      3 C         140.0957  139.6035  162.8676 C.ar    1  UNL1        0.0253
      4 C         138.9026  140.2627  163.4935 C.ar    1  UNL1        0.1365
      5 C         137.7438  140.6831  162.6390 C.ar    1  UNL1        0.1541
      6 O         136.5506  141.3423  163.2649 O.3     1  UNL1       -0.5039
      7 C         137.7781  140.4443  161.1585 C.ar    1  UNL1        0.0527
      8 H         136.5291  141.4915  164.1897 H       1  UNL1        0.2923
      9 C         138.2001  140.4162  158.1332 C.3     1  UNL1        0.1122
     10 N         139.0055  139.5463  159.0521 N.pl3   1  UNL1       -0.3040
     11 C         139.8453  138.4375  158.4905 C.3     1  UNL1        0.1122
     12 N         138.8683  140.5015  164.9740 N.2     1  UNL1       -0.1435
     13 N         140.0481  141.1228  165.6610 N.2     1  UNL1       -0.1284
     14 C         140.0137  141.3617  167.1415 C.ar    1  UNL1        0.1838
     15 C         140.5331  142.6510  167.7054 C.ar    1  UNL1        0.0406
     16 C         140.4988  142.8898  169.1859 C.ar    1  UNL1        0.0048
     17 C         139.9451  141.8393  170.1024 C.ar    1  UNL1        0.0208
     18 C         139.4258  140.5500  169.5385 C.ar    1  UNL1        0.1006
     19 N         139.4601  140.3112  168.0580 N.ar    1  UNL1       -0.2236
@<TRIPOS>BOND
     1     9    10    1
     2    10    11    1
     3    10     1    1
     4     1     2   ar
     5     2     3   ar
     6     3     4   ar
     7     4    12    1
     8    12    13    2
     9    13    14    1
    10    14    15   ar
    11    15    16   ar
    12    16    17   ar
    13    17    18   ar
    14    18    19   ar
    15     4     5   ar
    16     5     6    1
    17     5     7   ar
    18     7     1   ar
    19    19    14   ar
    20     6     8    1
@<TRIPOS>MOLECULE
*****
 19 20 0 0 0
SMALL
GASTEIGER

@<TRIPOS>ATOM
      1 C         139.0245  138.9273  164.9556 C.ar    1  UNL1        0.0511
      2 C         138.2628  139.7176  163.9333 C.ar    1  UNL1        0.0163
      3 C         138.5378  139.5165  162.4725 C.ar    1  UNL1        0.0253
      4 C         139.5745  138.5251  162.0340 C.ar    1  UNL1        0.1365
      5 C         140.3362  137.7348  163.0563 C.ar    1  UNL1        0.1541
      6 O         141.3729  136.7433  162.6178 O.3     1  UNL1       -0.5039
      7 C         140.0612  137.9359  164.5171 C.ar    1  UNL1        0.0527
      8 H         141.5447  136.6176  161.7053 H       1  UNL1        0.2923
      9 C         137.5933  138.4272  167.0654 C.3     1  UNL1        0.1122
     10 N         138.7495  139.1285  166.4164 N.pl3   1  UNL1       -0.3040
     11 C         139.6308  140.0308  167.2282 C.3     1  UNL1        0.1122
     12 N         139.8495  138.3240  160.5732 N.2     1  UNL1       -0.1435
     13 N         141.2454  138.4740  160.0452 N.2     1  UNL1       -0.1284
     14 C         141.5204  138.2729  158.5844 C.ar    1  UNL1        0.1838
     15 C         140.3818  138.0888  157.6253 C.ar    1  UNL1        0.0406
     16 C         140.6568  137.8877  156.1645 C.ar    1  UNL1        0.0048
     17 C         142.0703  137.8706  155.6628 C.ar    1  UNL1        0.0208
     18 C         143.2088  138.0547  156.6219 C.ar    1  UNL1        0.1006
     19 N         142.9338  138.2558  158.0827 N.ar    1  UNL1       -0.2236
@<TRIPOS>BOND
     1     9    10    1
     2    10    11    1
     3    10     1    1
     4     1     2   ar
     5     2     3   ar
     6     3     4   ar
     7     4    12    1
     8    12    13    2
     9    13    14    1
    10    14    15   ar
    11    15    16   ar
    12    16    17   ar
    13    17    18   ar
    14    18    19   ar
    15     4     5   ar
    16     5     6    1
    17     5     7   ar
    18     7     1   ar
    19    19    14   ar
    20     6     8    1
@<TRIPOS>MOLECULE
*****
 19 20 0 0 0
SMALL
GASTEIGER

@<TRIPOS>ATOM
      1 C         138.4563  139.3145  164.7730 C.ar    1  UNL1        0.0511
      2 C         138.7265  138.1412  163.8784 C.ar    1  UNL1        0.0163
      3 C         138.5339  138.2681  162.3963 C.ar    1  UNL1        0.0253
      4 C         138.0709  139.5683  161.8087 C.ar    1  UNL1        0.1365
      5 C         137.8007  140.7415  162.7033 C.ar    1  UNL1        0.1541
      6 O         137.3377  142.0418  162.1158 O.3     1  UNL1       -0.5039
      7 C         137.9934  140.6146  164.1855 C.ar    1  UNL1        0.0527
      8 H         137.2173  142.1211  161.1900 H       1  UNL1        0.2923
      9 C         137.6333  138.4584  167.0838 C.3     1  UNL1        0.1122
     10 N         138.6490  139.1876  166.2552 N.pl3   1  UNL1       -0.3040
     11 C         139.8573  139.7898  166.9087 C.3     1  UNL1        0.1122
     12 N         137.8783  139.6952  160.3266 N.2     1  UNL1       -0.1435
     13 N         138.2750  140.9598  159.6242 N.2     1  UNL1       -0.1284
     14 C         138.0824  141.0867  158.1421 C.ar    1  UNL1        0.1838
     15 C         137.6987  142.4087  157.5461 C.ar    1  UNL1        0.0406
     16 C         137.5060  142.5356  156.0640 C.ar    1  UNL1        0.0048
     17 C         137.6970  141.3405  155.1778 C.ar    1  UNL1        0.0208
     18 C         138.0807  140.0186  155.7738 C.ar    1  UNL1        0.1006
     19 N         138.2734  139.8916  157.2559 N.ar    1  UNL1       -0.2236
@<TRIPOS>BOND
     1     9    10    1
     2    10    11    1
     3    10     1    1
     4     1     2   ar
     5     2     3   ar
     6     3     4   ar
     7     4    12    1
     8    12    13    2
     9    13    14    1
    10    14    15   ar
    11    15    16   ar
    12    16    17   ar
    13    17    18   ar
    14    18    19   ar
    15     4     5   ar
    16     5     6    1
    17     5     7   ar
    18     7     1   ar
    19    19    14   ar
    20     6     8    1
@<TRIPOS>MOLECULE
*****
 19 20 0 0 0
SMALL
GASTEIGER

@<TRIPOS>ATOM
      1 C         144.2177  141.1491  161.4443 C.ar    1  UNL1        0.0511
      2 C         143.6505  141.6656  160.1553 C.ar    1  UNL1        0.0163
      3 C         143.0482  140.7127  159.1657 C.ar    1  UNL1        0.0253
      4 C         143.0132  139.2433  159.4651 C.ar    1  UNL1        0.1365
      5 C         143.5805  138.7268  160.7540 C.ar    1  UNL1        0.1541
      6 O         143.5455  137.2574  161.0535 O.3     1  UNL1       -0.5039
      7 C         144.1827  139.6797  161.7436 C.ar    1  UNL1        0.0527
      8 H         143.1693  136.6621  160.4353 H       1  UNL1        0.2923
      9 C         144.4764  143.5609  162.3749 C.3     1  UNL1        0.1122
     10 N         144.8199  142.1020  162.4339 N.pl3   1  UNL1       -0.3040
     11 C         145.7657  141.5960  163.4824 C.3     1  UNL1        0.1122
     12 N         142.4110  138.2904  158.4755 N.2     1  UNL1       -0.1435
     13 N         143.1751  137.0733  158.0456 N.2     1  UNL1       -0.1284
     14 C         142.5729  136.1204  157.0560 C.ar    1  UNL1        0.1838
     15 C         141.4988  136.5904  156.1202 C.ar    1  UNL1        0.0406
     16 C         140.8966  135.6375  155.1306 C.ar    1  UNL1        0.0048
     17 C         141.3684  134.2146  155.0768 C.ar    1  UNL1        0.0208
     18 C         142.4424  133.7447  156.0125 C.ar    1  UNL1        0.1006
     19 N         143.0447  134.6976  157.0021 N.ar    1  UNL1       -0.2236
@<TRIPOS>BOND
     1     9    10    1
     2    10    11    1
     3    10     1    1
     4     1     2   ar
     5     2     3   ar
     6     3     4   ar
     7     4    12    1
     8    12    13    2
     9    13    14    1
    10    14    15   ar
    11    15    16   ar
    12    16    17   ar
    13    17    18   ar
    14    18    19   ar
    15     4     5   ar
    16     5     6    1
    17     5     7   ar
    18     7     1   ar
    19    19    14   ar
    20     6     8    1
@<TRIPOS>MOLECULE
*****
 19 20 0 0 0
SMALL
GASTEIGER

@<TRIPOS>ATOM
      1 C         144.3387  140.9308  161.7533 C.ar    1  UNL1        0.0511
      2 C         144.2912  139.5413  162.3162 C.ar    1  UNL1        0.0163
      3 C         143.7729  138.4100  161.4786 C.ar    1  UNL1        0.0253
      4 C         143.3020  138.6683  160.0781 C.ar    1  UNL1        0.1365
      5 C         143.3495  140.0578  159.5152 C.ar    1  UNL1        0.1541
      6 O         142.8786  140.3161  158.1146 O.3     1  UNL1       -0.5039
      7 C         143.8678  141.1890  160.3528 C.ar    1  UNL1        0.0527
      8 H         142.5548  139.6095  157.5913 H       1  UNL1        0.2923
      9 C         144.5148  143.4780  162.2334 C.3     1  UNL1        0.1122
     10 N         144.8571  142.0620  162.5909 N.pl3   1  UNL1       -0.3040
     11 C         145.7177  141.7773  163.7859 C.3     1  UNL1        0.1122
     12 N         142.7836  137.5370  159.2405 N.2     1  UNL1       -0.1435
     13 N         143.0961  137.4849  157.7744 N.2     1  UNL1       -0.1284
     14 C         142.5777  136.3537  156.9368 C.ar    1  UNL1        0.1838
     15 C         141.4901  136.6003  155.9336 C.ar    1  UNL1        0.0406
     16 C         140.9718  135.4691  155.0960 C.ar    1  UNL1        0.0048
     17 C         141.5410  134.0911  155.2616 C.ar    1  UNL1        0.0208
     18 C         142.6285  133.8445  156.2648 C.ar    1  UNL1        0.1006
     19 N         143.1469  134.9758  157.1024 N.ar    1  UNL1       -0.2236
@<TRIPOS>BOND
     1     9    10    1
     2    10    11    1
     3    10     1    1
     4     1     2   ar
     5     2     3   ar
     6     3     4   ar
     7     4    12    1
     8    12    13    2
     9    13    14    1
    10    14    15   ar
    11    15    16   ar
    12    16    17   ar
    13    17    18   ar
    14    18    19   ar
    15     4     5   ar
    16     5     6    1
    17     5     7   ar
    18     7     1   ar
    19    19    14   ar
    20     6     8    1
@<TRIPOS>MOLECULE
*****
 19 20 0 0 0
SMALL
GASTEIGER

@<TRIPOS>ATOM
      1 C         143.4873  142.8431  160.9699 C.ar    1  UNL1        0.0511
      2 C         142.2666  142.9584  161.8340 C.ar    1  UNL1        0.0163
      3 C         142.3553  142.6590  163.3011 C.ar    1  UNL1        0.0253
      4 C         143.6646  142.2443  163.9042 C.ar    1  UNL1        0.1365
      5 C         144.8853  142.1291  163.0401 C.ar    1  UNL1        0.1541
      6 O         146.1947  141.7144  163.6431 O.3     1  UNL1       -0.5039
      7 C         144.7966  142.4285  161.5729 C.ar    1  UNL1        0.0527
      8 H         146.2501  141.5274  164.5596 H       1  UNL1        0.2923
      9 C         142.2560  143.9559  158.9710 C.3     1  UNL1        0.1122
     10 N         143.3986  143.1425  159.5028 N.pl3   1  UNL1       -0.3040
     11 C         144.4525  142.6285  158.5674 C.3     1  UNL1        0.1122
     12 N         143.7533  141.9449  165.3713 N.2     1  UNL1       -0.1435
     13 N         142.5984  141.2968  166.0757 N.2     1  UNL1       -0.1284
     14 C         142.6871  140.9974  167.5428 C.ar    1  UNL1        0.1838
     15 C         142.3238  139.6345  168.0534 C.ar    1  UNL1        0.0406
     16 C         142.4125  139.3352  169.5206 C.ar    1  UNL1        0.0048
     17 C         142.8644  140.3986  170.4771 C.ar    1  UNL1        0.0208
     18 C         143.2277  141.7614  169.9664 C.ar    1  UNL1        0.1006
     19 N         143.1390  142.0608  168.4993 N.ar    1  UNL1       -0.2236
@<TRIPOS>BOND
     1     9    10    1
     2    10    11    1
     3    10     1    1
     4     1     2   ar
     5     2     3   ar
     6     3     4   ar
     7     4    12    1
     8    12    13    2
     9    13    14    1
    10    14    15   ar
    11    15    16   ar
    12    16    17   ar
    13    17    18   ar
    14    18    19   ar
    15     4     5   ar
    16     5     6    1
    17     5     7   ar
    18     7     1   ar
    19    19    14   ar
    20     6     8    1
@<TRIPOS>MOLECULE
*****
 19 20 0 0 0
SMALL
GASTEIGER

@<TRIPOS>ATOM
      1 C         142.4256  133.2778  155.5462 C.ar    1  UNL1        0.0511
      2 C         143.0034  133.6802  156.8706 C.ar    1  UNL1        0.0163
      3 C         143.4623  135.0911  157.0911 C.ar    1  UNL1        0.0253
      4 C         143.3434  136.0996  155.9872 C.ar    1  UNL1        0.1365
      5 C         142.7656  135.6972  154.6628 C.ar    1  UNL1        0.1541
      6 O         142.6467  136.7058  153.5588 O.3     1  UNL1       -0.5039
      7 C         142.3067  134.2863  154.4423 C.ar    1  UNL1        0.0527
      8 H         142.9334  137.5872  153.6965 H       1  UNL1        0.2923
      9 C         140.8616  131.5810  154.3525 C.3     1  UNL1        0.1122
     10 N         141.9667  131.8668  155.3256 N.pl3   1  UNL1       -0.3040
     11 C         142.6129  130.7417  156.0782 C.3     1  UNL1        0.1122
     12 N         143.8023  137.5106  156.2078 N.2     1  UNL1       -0.1435
     13 N         144.7587  138.1475  155.2437 N.2     1  UNL1       -0.1284
     14 C         145.2176  139.5585  155.4643 C.ar    1  UNL1        0.1838
     15 C         145.7924  140.3470  154.3249 C.ar    1  UNL1        0.0406
     16 C         146.2513  141.7579  154.5455 C.ar    1  UNL1        0.0048
     17 C         146.1354  142.3804  155.9053 C.ar    1  UNL1        0.0208
     18 C         145.5607  141.5919  157.0446 C.ar    1  UNL1        0.1006
     19 N         145.1018  140.1810  156.8240 N.ar    1  UNL1       -0.2236
@<TRIPOS>BOND
     1     9    10    1
     2    10    11    1
     3    10     1    1
     4     1     2   ar
     5     2     3   ar
     6     3     4   ar
     7     4    12    1
     8    12    13    2
     9    13    14    1
    10    14    15   ar
    11    15    16   ar
    12    16    17   ar
    13    17    18   ar
    14    18    19   ar
    15     4     5   ar
    16     5     6    1
    17     5     7   ar
    18     7     1   ar
    19    19    14   ar
    20     6     8    1
