@<TRIPOS>MOLECULE
*****
 32 35 0 0 0
SMALL
GASTEIGER

@<TRIPOS>ATOM
      1 N         144.2796  140.0666  163.8409 N.3     1  UNL1       -0.2700
      2 C         143.9838  139.5212  165.2065 C.3     1  UNL1        0.0897
      3 C         142.7789  138.6545  165.4232 C.3     1  UNL1        0.0897
      4 N         141.8698  138.3332  164.2741 N.3     1  UNL1       -0.2700
      5 C         142.1656  138.8786  162.9084 C.3     1  UNL1        0.0897
      6 C         143.3705  139.7453  162.6918 C.3     1  UNL1        0.0897
      7 C         145.4845  140.9333  163.6242 C.3     1  UNL1        0.0769
      8 C         145.4035  142.4087  163.8826 C.3     1  UNL1        0.0438
      9 C         142.7388  144.1355  161.5021 C.ar    1  UNL1        0.1479
     10 C         143.9377  143.3587  161.9594 C.ar    1  UNL1        0.0334
     11 C         144.2046  143.1855  163.4253 C.ar    1  UNL1       -0.0177
     12 C         143.2726  143.7890  164.4338 C.ar    1  UNL1       -0.0033
     13 C         142.0737  144.5657  163.9764 C.ar    1  UNL1        0.0130
     14 C         141.8068  144.7390  162.5106 C.ar    1  UNL1        0.1023
     15 C         143.0192  143.3180  159.0520 C.3     1  UNL1        0.2525
     16 O         142.4718  144.3088  160.0362 O.3     1  UNL1       -0.4708
     17 C         140.6078  145.5158  162.0533 C.1     1  UNL1        0.1035
     18 N         139.4089  146.2927  161.5960 N.1     1  UNL1       -0.1907
     19 C         140.6648  137.4665  164.4907 C.3     1  UNL1        0.0765
     20 C         139.4062  138.0587  165.0521 C.3     1  UNL1        0.0380
     21 C         138.3723  137.1691  165.6763 C.3     1  UNL1        0.0061
     22 C         139.1814  139.5405  164.9892 C.ar    1  UNL1       -0.0253
     23 C         139.6523  140.4187  166.1102 C.ar    1  UNL1       -0.0044
     24 C         139.4276  141.9005  166.0473 C.ar    1  UNL1        0.0059
     25 C         138.7320  142.5039  164.8633 C.ar    1  UNL1        0.0748
     26 C         138.2611  141.6257  163.7422 C.ar    1  UNL1        0.0233
     27 C         138.4858  140.1440  163.8051 C.ar    1  UNL1       -0.0260
     28 C         138.0149  139.2656  162.6839 C.3     1  UNL1        0.0305
     29 C         137.6102  142.4992  162.7110 C.3     1  UNL1        0.2352
     30 O         137.6788  143.9174  163.1949 O.3     1  UNL1       -0.4404
     31 C         138.3721  143.9203  164.5251 C.2     1  UNL1        0.3413
     32 O         138.6557  145.1276  165.3688 O.2     1  UNL1       -0.2449
@<TRIPOS>BOND
     1    15    16    1
     2    16     9    1
     3     9    10   ar
     4    10    11   ar
     5    11     8    1
     6     8     7    1
     7     7     1    1
     8     1     2    1
     9     2     3    1
    10     3     4    1
    11     4    19    1
    12    19    20    1
    13    20    21    1
    14    20    22    1
    15    22    23   ar
    16    23    24   ar
    17    24    25   ar
    18    25    26   ar
    19    26    27   ar
    20    27    28    1
    21    26    29    1
    22    29    30    1
    23    30    31    1
    24    31    32    2
    25     4     5    1
    26     5     6    1
    27    11    12   ar
    28    12    13   ar
    29    13    14   ar
    30    14    17    1
    31    17    18    3
    32    14     9   ar
    33     6     1    1
    34    27    22   ar
    35    31    25    1
@<TRIPOS>MOLECULE
*****
 32 35 0 0 0
SMALL
GASTEIGER

@<TRIPOS>ATOM
      1 N         143.9645  139.7279  164.0256 N.3     1  UNL1       -0.2700
      2 C         142.9722  139.5153  162.9210 C.3     1  UNL1        0.0897
      3 C         141.6701  138.8267  163.2048 C.3     1  UNL1        0.0897
      4 N         141.3605  138.3507  164.5933 N.3     1  UNL1       -0.2700
      5 C         142.3528  138.5634  165.6978 C.3     1  UNL1        0.0897
      6 C         143.6548  139.2520  165.4139 C.3     1  UNL1        0.0897
      7 C         145.2665  140.4165  163.7418 C.3     1  UNL1        0.0769
      8 C         145.3977  141.8942  163.9642 C.3     1  UNL1        0.0438
      9 C         142.9471  143.9639  161.6275 C.ar    1  UNL1        0.1479
     10 C         144.0441  143.0393  162.0652 C.ar    1  UNL1        0.0334
     11 C         144.3007  142.8188  163.5266 C.ar    1  UNL1       -0.0177
     12 C         143.4602  143.5230  164.5502 C.ar    1  UNL1       -0.0033
     13 C         142.3632  144.4476  164.1125 C.ar    1  UNL1        0.0130
     14 C         142.1067  144.6681  162.6511 C.ar    1  UNL1        0.1023
     15 C         142.4113  143.0152  159.2689 C.3     1  UNL1        0.2525
     16 O         142.6905  144.1844  160.1661 O.3     1  UNL1       -0.4708
     17 C         141.0096  145.5927  162.2135 C.1     1  UNL1        0.1035
     18 N         139.9126  146.5174  161.7757 N.1     1  UNL1       -0.1907
     19 C         140.0585  137.6622  164.8771 C.3     1  UNL1        0.0765
     20 C         138.8977  138.4451  165.4152 C.3     1  UNL1        0.0380
     21 C         137.9860  137.8294  166.4349 C.3     1  UNL1        0.0061
     22 C         138.6486  139.8438  164.9337 C.ar    1  UNL1       -0.0253
     23 C         137.8744  140.0752  163.6701 C.ar    1  UNL1       -0.0044
     24 C         137.6253  141.4738  163.1886 C.ar    1  UNL1        0.0059
     25 C         138.1505  142.6410  163.9708 C.ar    1  UNL1        0.0748
     26 C         138.9248  142.4096  165.2344 C.ar    1  UNL1        0.0233
     27 C         139.1739  141.0110  165.7159 C.ar    1  UNL1       -0.0260
     28 C         139.9482  140.7794  166.9796 C.3     1  UNL1        0.0305
     29 C         139.3158  143.7469  165.7901 C.3     1  UNL1        0.2352
     30 O         138.7831  144.8048  164.8698 O.3     1  UNL1       -0.4404
     31 C         138.0629  144.1214  163.7454 C.2     1  UNL1        0.3413
     32 O         137.3758  144.7993  162.5972 O.2     1  UNL1       -0.2449
@<TRIPOS>BOND
     1    15    16    1
     2    16     9    1
     3     9    10   ar
     4    10    11   ar
     5    11     8    1
     6     8     7    1
     7     7     1    1
     8     1     2    1
     9     2     3    1
    10     3     4    1
    11     4    19    1
    12    19    20    1
    13    20    21    1
    14    20    22    1
    15    22    23   ar
    16    23    24   ar
    17    24    25   ar
    18    25    26   ar
    19    26    27   ar
    20    27    28    1
    21    26    29    1
    22    29    30    1
    23    30    31    1
    24    31    32    2
    25     4     5    1
    26     5     6    1
    27    11    12   ar
    28    12    13   ar
    29    13    14   ar
    30    14    17    1
    31    17    18    3
    32    14     9   ar
    33     6     1    1
    34    27    22   ar
    35    31    25    1
@<TRIPOS>MOLECULE
*****
 32 35 0 0 0
SMALL
GASTEIGER

@<TRIPOS>ATOM
      1 N         140.0480  139.2996  160.8387 N.3     1  UNL1       -0.2700
      2 C         141.0851  140.3587  160.6094 C.3     1  UNL1        0.0897
      3 C         142.4113  140.2729  161.3049 C.3     1  UNL1        0.0897
      4 N         142.7003  139.1278  162.2299 N.3     1  UNL1       -0.2700
      5 C         141.6632  138.0687  162.4592 C.3     1  UNL1        0.0897
      6 C         140.3370  138.1546  161.7636 C.3     1  UNL1        0.0897
      7 C         138.7218  139.3854  160.1431 C.3     1  UNL1        0.0769
      8 C         137.5352  139.9597  160.8588 C.3     1  UNL1        0.0438
      9 C         138.1860  143.5247  162.4765 C.ar    1  UNL1        0.1479
     10 C         137.9939  142.4475  161.4505 C.ar    1  UNL1        0.0334
     11 C         137.7273  141.0368  161.8850 C.ar    1  UNL1       -0.0177
     12 C         137.6527  140.7032  163.3455 C.ar    1  UNL1       -0.0033
     13 C         137.8448  141.7804  164.3715 C.ar    1  UNL1        0.0130
     14 C         138.1115  143.1911  163.9371 C.ar    1  UNL1        0.1023
     15 C         139.8466  145.3597  161.6860 C.3     1  UNL1        0.2525
     16 O         138.4526  144.9355  162.0421 O.3     1  UNL1       -0.4708
     17 C         138.3036  144.2682  164.9633 C.1     1  UNL1        0.1035
     18 N         138.4955  145.3453  165.9894 N.1     1  UNL1       -0.1907
     19 C         144.0265  139.0420  162.9254 C.3     1  UNL1        0.0765
     20 C         144.3427  139.9766  164.0553 C.3     1  UNL1        0.0380
     21 C         145.5125  140.9097  163.9518 C.3     1  UNL1        0.0061
     22 C         143.4889  139.9780  165.2888 C.ar    1  UNL1       -0.0253
     23 C         143.7030  138.9401  166.3502 C.ar    1  UNL1       -0.0044
     24 C         142.8493  138.9415  167.5836 C.ar    1  UNL1        0.0059
     25 C         141.7816  139.9810  167.7555 C.ar    1  UNL1        0.0748
     26 C         141.5675  141.0190  166.6940 C.ar    1  UNL1        0.0233
     27 C         142.4212  141.0175  165.4606 C.ar    1  UNL1       -0.0260
     28 C         142.2072  142.0555  164.3990 C.3     1  UNL1        0.0305
     29 C         140.4463  141.9113  167.1375 C.3     1  UNL1        0.2352
     30 O         139.9675  141.4247  168.4732 O.3     1  UNL1       -0.4404
     31 C         140.7927  140.2317  168.8551 C.2     1  UNL1        0.3413
     32 O         140.6534  139.4303  170.1154 O.2     1  UNL1       -0.2449
@<TRIPOS>BOND
     1    15    16    1
     2    16     9    1
     3     9    10   ar
     4    10    11   ar
     5    11     8    1
     6     8     7    1
     7     7     1    1
     8     1     2    1
     9     2     3    1
    10     3     4    1
    11     4    19    1
    12    19    20    1
    13    20    21    1
    14    20    22    1
    15    22    23   ar
    16    23    24   ar
    17    24    25   ar
    18    25    26   ar
    19    26    27   ar
    20    27    28    1
    21    26    29    1
    22    29    30    1
    23    30    31    1
    24    31    32    2
    25     4     5    1
    26     5     6    1
    27    11    12   ar
    28    12    13   ar
    29    13    14   ar
    30    14    17    1
    31    17    18    3
    32    14     9   ar
    33     6     1    1
    34    27    22   ar
    35    31    25    1
@<TRIPOS>MOLECULE
*****
 32 35 0 0 0
SMALL
GASTEIGER

@<TRIPOS>ATOM
      1 N         139.1284  142.7273  161.3348 N.3     1  UNL1       -0.2700
      2 C         138.1040  143.1468  162.3471 C.3     1  UNL1        0.0897
      3 C         137.7724  142.2430  163.4974 C.3     1  UNL1        0.0897
      4 N         138.4653  140.9198  163.6355 N.3     1  UNL1       -0.2700
      5 C         139.4897  140.5003  162.6232 C.3     1  UNL1        0.0897
      6 C         139.8212  141.4041  161.4729 C.3     1  UNL1        0.0897
      7 C         139.4600  143.6310  160.1845 C.3     1  UNL1        0.0769
      8 C         140.7195  144.4454  160.2092 C.3     1  UNL1        0.0438
      9 C         143.7849  143.4947  162.5435 C.ar    1  UNL1        0.1479
     10 C         142.8762  143.5548  161.3516 C.ar    1  UNL1        0.0334
     11 C         141.6281  144.3853  161.4012 C.ar    1  UNL1       -0.0177
     12 C         141.2887  145.1558  162.6426 C.ar    1  UNL1       -0.0033
     13 C         142.1974  145.0957  163.8345 C.ar    1  UNL1        0.0130
     14 C         143.4455  144.2652  163.7849 C.ar    1  UNL1        0.1023
     15 C         144.9935  141.2251  162.9157 C.3     1  UNL1        0.2525
     16 O         145.0330  142.6641  162.4941 O.3     1  UNL1       -0.4708
     17 C         144.3542  144.2051  164.9770 C.1     1  UNL1        0.1035
     18 N         145.2629  144.1452  166.1688 N.1     1  UNL1       -0.1907
     19 C         138.1337  140.0160  164.7858 C.3     1  UNL1        0.0765
     20 C         139.2346  139.4022  165.5989 C.3     1  UNL1        0.0380
     21 C         139.9174  138.1564  165.1175 C.3     1  UNL1        0.0061
     22 C         139.6529  140.0343  166.8934 C.ar    1  UNL1       -0.0253
     23 C         138.8728  139.7651  168.1459 C.ar    1  UNL1       -0.0044
     24 C         139.2910  140.3971  169.4404 C.ar    1  UNL1        0.0059
     25 C         140.4893  141.2984  169.4823 C.ar    1  UNL1        0.0748
     26 C         141.2694  141.5676  168.2297 C.ar    1  UNL1        0.0233
     27 C         140.8512  140.9356  166.9352 C.ar    1  UNL1       -0.0260
     28 C         141.6313  141.2048  165.6826 C.3     1  UNL1        0.0305
     29 C         142.3981  142.4928  168.5764 C.3     1  UNL1        0.2352
     30 O         142.3155  142.7953  170.0432 O.3     1  UNL1       -0.4404
     31 C         141.1358  142.0571  170.6031 C.2     1  UNL1        0.3413
     32 O         140.6823  142.0747  172.0328 O.2     1  UNL1       -0.2449
@<TRIPOS>BOND
     1    15    16    1
     2    16     9    1
     3     9    10   ar
     4    10    11   ar
     5    11     8    1
     6     8     7    1
     7     7     1    1
     8     1     2    1
     9     2     3    1
    10     3     4    1
    11     4    19    1
    12    19    20    1
    13    20    21    1
    14    20    22    1
    15    22    23   ar
    16    23    24   ar
    17    24    25   ar
    18    25    26   ar
    19    26    27   ar
    20    27    28    1
    21    26    29    1
    22    29    30    1
    23    30    31    1
    24    31    32    2
    25     4     5    1
    26     5     6    1
    27    11    12   ar
    28    12    13   ar
    29    13    14   ar
    30    14    17    1
    31    17    18    3
    32    14     9   ar
    33     6     1    1
    34    27    22   ar
    35    31    25    1
@<TRIPOS>MOLECULE
*****
 32 35 0 0 0
SMALL
GASTEIGER

@<TRIPOS>ATOM
      1 N         141.1395  138.1195  161.1048 N.3     1  UNL1       -0.2700
      2 C         141.9070  138.0181  162.3896 C.3     1  UNL1        0.0897
      3 C         141.1760  137.8515  163.6888 C.3     1  UNL1        0.0897
      4 N         139.6774  137.7863  163.7031 N.3     1  UNL1       -0.2700
      5 C         138.9099  137.8877  162.4183 C.3     1  UNL1        0.0897
      6 C         139.6410  138.0543  161.1192 C.3     1  UNL1        0.0897
      7 C         141.8705  138.2860  159.8056 C.3     1  UNL1        0.0769
      8 C         142.0994  139.6581  159.2443 C.3     1  UNL1        0.0438
      9 C         144.2058  141.9585  161.6981 C.ar    1  UNL1        0.1479
     10 C         143.8331  140.8276  160.7859 C.ar    1  UNL1        0.0334
     11 C         142.4721  140.7891  160.1565 C.ar    1  UNL1       -0.0177
     12 C         141.4837  141.8813  160.4394 C.ar    1  UNL1       -0.0033
     13 C         141.8564  143.0122  161.3516 C.ar    1  UNL1        0.0130
     14 C         143.2175  143.0508  161.9810 C.ar    1  UNL1        0.1023
     15 C         145.7810  141.4036  163.6883 C.3     1  UNL1        0.2525
     16 O         145.5669  141.9972  162.3275 O.3     1  UNL1       -0.4708
     17 C         143.5901  144.1818  162.8932 C.1     1  UNL1        0.1035
     18 N         143.9626  145.3127  163.8055 N.1     1  UNL1       -0.1907
     19 C         138.9464  137.6198  165.0023 C.3     1  UNL1        0.0765
     20 C         138.3892  138.8201  165.7086 C.3     1  UNL1        0.0380
     21 C         137.7074  138.6603  167.0350 C.3     1  UNL1        0.0061
     22 C         138.5139  140.1802  165.0883 C.ar    1  UNL1       -0.0253
     23 C         137.5234  140.6265  164.0541 C.ar    1  UNL1       -0.0044
     24 C         137.6480  141.9865  163.4339 C.ar    1  UNL1        0.0059
     25 C         138.7632  142.9003  163.8479 C.ar    1  UNL1        0.0748
     26 C         139.7537  142.4541  164.8822 C.ar    1  UNL1        0.0233
     27 C         139.6291  141.0940  165.5024 C.ar    1  UNL1       -0.0260
     28 C         140.6195  140.6477  166.5368 C.3     1  UNL1        0.0305
     29 C         140.7405  143.5647  165.0887 C.3     1  UNL1        0.2352
     30 O         140.3599  144.6974  164.1820 O.3     1  UNL1       -0.4404
     31 C         139.1378  144.2868  163.4151 C.2     1  UNL1        0.3413
     32 O         138.4170  145.1169  162.3947 O.2     1  UNL1       -0.2449
@<TRIPOS>BOND
     1    15    16    1
     2    16     9    1
     3     9    10   ar
     4    10    11   ar
     5    11     8    1
     6     8     7    1
     7     7     1    1
     8     1     2    1
     9     2     3    1
    10     3     4    1
    11     4    19    1
    12    19    20    1
    13    20    21    1
    14    20    22    1
    15    22    23   ar
    16    23    24   ar
    17    24    25   ar
    18    25    26   ar
    19    26    27   ar
    20    27    28    1
    21    26    29    1
    22    29    30    1
    23    30    31    1
    24    31    32    2
    25     4     5    1
    26     5     6    1
    27    11    12   ar
    28    12    13   ar
    29    13    14   ar
    30    14    17    1
    31    17    18    3
    32    14     9   ar
    33     6     1    1
    34    27    22   ar
    35    31    25    1
@<TRIPOS>MOLECULE
*****
 32 35 0 0 0
SMALL
GASTEIGER

@<TRIPOS>ATOM
      1 N         142.7353  138.4057  162.6806 N.3     1  UNL1       -0.2700
      2 C         142.7953  138.5840  164.1688 C.3     1  UNL1        0.0897
      3 C         141.5829  138.3056  165.0070 C.3     1  UNL1        0.0897
      4 N         140.3105  137.8489  164.3569 N.3     1  UNL1       -0.2700
      5 C         140.2505  137.6706  162.8688 C.3     1  UNL1        0.0897
      6 C         141.4629  137.9490  162.0306 C.3     1  UNL1        0.0897
      7 C         143.9477  138.6840  161.8424 C.3     1  UNL1        0.0769
      8 C         144.4833  140.0813  161.7389 C.3     1  UNL1        0.0438
      9 C         142.7156  143.6319  161.6058 C.ar    1  UNL1        0.1479
     10 C         143.6174  142.5128  162.0351 C.ar    1  UNL1        0.0334
     11 C         143.5815  141.2004  161.3096 C.ar    1  UNL1       -0.0177
     12 C         142.6439  141.0071  160.1549 C.ar    1  UNL1       -0.0033
     13 C         141.7421  142.1262  159.7256 C.ar    1  UNL1        0.0130
     14 C         141.7779  143.4387  160.4511 C.ar    1  UNL1        0.1023
     15 C         143.1844  144.9964  163.7664 C.3     1  UNL1        0.2525
     16 O         142.7514  144.9444  162.3312 O.3     1  UNL1       -0.4708
     17 C         140.8761  144.5578  160.0217 C.1     1  UNL1        0.1035
     18 N         139.9743  145.6769  159.5923 N.1     1  UNL1       -0.1907
     19 C         139.0981  137.5705  165.1951 C.3     1  UNL1        0.0765
     20 C         138.3352  138.7058  165.8107 C.3     1  UNL1        0.0380
     21 C         137.5470  138.4855  167.0678 C.3     1  UNL1        0.0061
     22 C         138.3604  140.0616  165.1692 C.ar    1  UNL1       -0.0253
     23 C         137.5675  140.3158  163.9216 C.ar    1  UNL1       -0.0044
     24 C         137.5927  141.6715  163.2802 C.ar    1  UNL1        0.0059
     25 C         138.4109  142.7730  163.8864 C.ar    1  UNL1        0.0748
     26 C         139.2038  142.5187  165.1341 C.ar    1  UNL1        0.0233
     27 C         139.1785  141.1631  165.7755 C.ar    1  UNL1       -0.0260
     28 C         139.9714  140.9087  167.0232 C.3     1  UNL1        0.0305
     29 C         139.9119  143.7893  165.5003 C.3     1  UNL1        0.2352
     30 O         139.5566  144.8288  164.4790 O.3     1  UNL1       -0.4404
     31 C         138.6289  144.2007  163.4815 C.2     1  UNL1        0.3413
     32 O         138.0253  144.8809  162.2886 O.2     1  UNL1       -0.2449
@<TRIPOS>BOND
     1    15    16    1
     2    16     9    1
     3     9    10   ar
     4    10    11   ar
     5    11     8    1
     6     8     7    1
     7     7     1    1
     8     1     2    1
     9     2     3    1
    10     3     4    1
    11     4    19    1
    12    19    20    1
    13    20    21    1
    14    20    22    1
    15    22    23   ar
    16    23    24   ar
    17    24    25   ar
    18    25    26   ar
    19    26    27   ar
    20    27    28    1
    21    26    29    1
    22    29    30    1
    23    30    31    1
    24    31    32    2
    25     4     5    1
    26     5     6    1
    27    11    12   ar
    28    12    13   ar
    29    13    14   ar
    30    14    17    1
    31    17    18    3
    32    14     9   ar
    33     6     1    1
    34    27    22   ar
    35    31    25    1
@<TRIPOS>MOLECULE
*****
 32 35 0 0 0
SMALL
GASTEIGER

@<TRIPOS>ATOM
      1 N         138.1970  140.5358  161.0300 N.3     1  UNL1       -0.2700
      2 C         137.4967  140.4048  162.3500 C.3     1  UNL1        0.0897
      3 C         137.3619  141.5978  163.2491 C.3     1  UNL1        0.0897
      4 N         137.9273  142.9219  162.8281 N.3     1  UNL1       -0.2700
      5 C         138.6276  143.0529  161.5081 C.3     1  UNL1        0.0897
      6 C         138.7624  141.8598  160.6091 C.3     1  UNL1        0.0897
      7 C         138.3319  139.3427  160.1309 C.3     1  UNL1        0.0769
      8 C         138.9230  138.0690  160.6583 C.3     1  UNL1        0.0438
      9 C         142.2207  138.6819  162.7795 C.ar    1  UNL1        0.1479
     10 C         141.2658  138.6432  161.6233 C.ar    1  UNL1        0.0334
     11 C         139.8778  138.1076  161.8145 C.ar    1  UNL1       -0.0177
     12 C         139.4446  137.6108  163.1619 C.ar    1  UNL1       -0.0033
     13 C         140.3995  137.6494  164.3181 C.ar    1  UNL1        0.0130
     14 C         141.7875  138.1850  164.1268 C.ar    1  UNL1        0.1023
     15 C         144.0942  139.5690  161.2133 C.3     1  UNL1        0.2525
     16 O         143.6088  139.2174  162.5883 O.3     1  UNL1       -0.4708
     17 C         142.7423  138.2236  165.2831 C.1     1  UNL1        0.1035
     18 N         143.6971  138.2622  166.4393 N.1     1  UNL1       -0.1907
     19 C         137.7924  144.1149  163.7273 C.3     1  UNL1        0.0765
     20 C         138.8248  144.3790  164.7829 C.3     1  UNL1        0.0380
     21 C         138.4746  145.2062  165.9842 C.3     1  UNL1        0.0061
     22 C         140.2075  143.8158  164.6373 C.ar    1  UNL1       -0.0253
     23 C         140.6041  142.5923  165.4090 C.ar    1  UNL1       -0.0044
     24 C         141.9867  142.0292  165.2634 C.ar    1  UNL1        0.0059
     25 C         142.9728  142.6896  164.3461 C.ar    1  UNL1        0.0748
     26 C         142.5762  143.9132  163.5743 C.ar    1  UNL1        0.0233
     27 C         141.1936  144.4764  163.7199 C.ar    1  UNL1       -0.0260
     28 C         140.7969  145.7000  162.9482 C.3     1  UNL1        0.0305
     29 C         143.7542  144.3448  162.7522 C.3     1  UNL1        0.2352
     30 O         144.8789  143.3879  163.0158 O.3     1  UNL1       -0.4404
     31 C         144.3959  142.3650  164.0009 C.2     1  UNL1        0.3413
     32 O         145.1957  141.2186  164.5452 O.2     1  UNL1       -0.2449
@<TRIPOS>BOND
     1    15    16    1
     2    16     9    1
     3     9    10   ar
     4    10    11   ar
     5    11     8    1
     6     8     7    1
     7     7     1    1
     8     1     2    1
     9     2     3    1
    10     3     4    1
    11     4    19    1
    12    19    20    1
    13    20    21    1
    14    20    22    1
    15    22    23   ar
    16    23    24   ar
    17    24    25   ar
    18    25    26   ar
    19    26    27   ar
    20    27    28    1
    21    26    29    1
    22    29    30    1
    23    30    31    1
    24    31    32    2
    25     4     5    1
    26     5     6    1
    27    11    12   ar
    28    12    13   ar
    29    13    14   ar
    30    14    17    1
    31    17    18    3
    32    14     9   ar
    33     6     1    1
    34    27    22   ar
    35    31    25    1
@<TRIPOS>MOLECULE
*****
 32 35 0 0 0
SMALL
GASTEIGER

@<TRIPOS>ATOM
      1 N         143.6988  139.4476  163.6701 N.3     1  UNL1       -0.2700
      2 C         142.8229  138.3866  164.2678 C.3     1  UNL1        0.0897
      3 C         142.1706  138.6149  165.5991 C.3     1  UNL1        0.0897
      4 N         142.3942  139.9041  166.3326 N.3     1  UNL1       -0.2700
      5 C         143.2701  140.9650  165.7349 C.3     1  UNL1        0.0897
      6 C         143.9224  140.7367  164.4036 C.3     1  UNL1        0.0897
      7 C         144.3512  139.2193  162.3388 C.3     1  UNL1        0.0769
      8 C         143.7162  138.2971  161.3406 C.3     1  UNL1        0.0438
      9 C         139.8895  138.7263  160.3807 C.ar    1  UNL1        0.1479
     10 C         141.1283  138.3016  161.1121 C.ar    1  UNL1        0.0334
     11 C         142.4775  138.7219  160.6091 C.ar    1  UNL1       -0.0177
     12 C         142.5879  139.5669  159.3747 C.ar    1  UNL1       -0.0033
     13 C         141.3491  139.9916  158.6433 C.ar    1  UNL1        0.0130
     14 C         139.9999  139.5713  159.1463 C.ar    1  UNL1        0.1023
     15 C         138.3794  137.8415  162.3008 C.3     1  UNL1        0.2525
     16 O         138.5402  138.3060  160.8836 O.3     1  UNL1       -0.4708
     17 C         138.7611  139.9961  158.4148 C.1     1  UNL1        0.1035
     18 N         137.5223  140.4208  157.6834 N.1     1  UNL1       -0.1907
     19 C         141.7418  140.1323  167.6639 C.3     1  UNL1        0.0765
     20 C         140.3456  140.6763  167.7314 C.3     1  UNL1        0.0380
     21 C         139.5051  140.4358  168.9504 C.3     1  UNL1        0.0061
     22 C         139.7898  141.4609  166.5800 C.ar    1  UNL1       -0.0253
     23 C         140.1351  142.9123  166.4253 C.ar    1  UNL1       -0.0044
     24 C         139.5793  143.6969  165.2740 C.ar    1  UNL1        0.0059
     25 C         138.6782  143.0300  164.2774 C.ar    1  UNL1        0.0748
     26 C         138.3329  141.5785  164.4321 C.ar    1  UNL1        0.0233
     27 C         138.8887  140.7939  165.5834 C.ar    1  UNL1       -0.0260
     28 C         138.5434  139.3424  165.7382 C.3     1  UNL1        0.0305
     29 C         137.4263  141.1945  163.3005 C.3     1  UNL1        0.2352
     30 O         137.2112  142.4087  162.4464 O.3     1  UNL1       -0.4404
     31 C         137.9850  143.5431  163.0501 C.2     1  UNL1        0.3413
     32 O         138.0535  144.9445  162.5198 O.2     1  UNL1       -0.2449
@<TRIPOS>BOND
     1    15    16    1
     2    16     9    1
     3     9    10   ar
     4    10    11   ar
     5    11     8    1
     6     8     7    1
     7     7     1    1
     8     1     2    1
     9     2     3    1
    10     3     4    1
    11     4    19    1
    12    19    20    1
    13    20    21    1
    14    20    22    1
    15    22    23   ar
    16    23    24   ar
    17    24    25   ar
    18    25    26   ar
    19    26    27   ar
    20    27    28    1
    21    26    29    1
    22    29    30    1
    23    30    31    1
    24    31    32    2
    25     4     5    1
    26     5     6    1
    27    11    12   ar
    28    12    13   ar
    29    13    14   ar
    30    14    17    1
    31    17    18    3
    32    14     9   ar
    33     6     1    1
    34    27    22   ar
    35    31    25    1
@<TRIPOS>MOLECULE
*****
 32 35 0 0 0
SMALL
GASTEIGER

@<TRIPOS>ATOM
      1 N         143.4547  139.0792  163.4299 N.3     1  UNL1       -0.2700
      2 C         142.4503  138.1222  164.0005 C.3     1  UNL1        0.0897
      3 C         141.8468  138.3838  165.3486 C.3     1  UNL1        0.0897
      4 N         142.2478  139.6023  166.1261 N.3     1  UNL1       -0.2700
      5 C         143.2522  140.5592  165.5556 C.3     1  UNL1        0.0897
      6 C         143.8556  140.2976  164.2075 C.3     1  UNL1        0.0897
      7 C         144.0581  138.8177  162.0818 C.3     1  UNL1        0.0769
      8 C         143.2479  139.0461  160.8402 C.3     1  UNL1        0.0438
      9 C         140.4548  141.7595  160.0751 C.ar    1  UNL1        0.1479
     10 C         141.1178  140.4337  160.3046 C.ar    1  UNL1        0.0334
     11 C         142.5850  140.3719  160.6107 C.ar    1  UNL1       -0.0177
     12 C         143.3891  141.6358  160.6872 C.ar    1  UNL1       -0.0033
     13 C         142.7260  142.9616  160.4576 C.ar    1  UNL1        0.0130
     14 C         141.2589  143.0234  160.1516 C.ar    1  UNL1        0.1023
     15 C         138.1997  140.5544  159.6144 C.3     1  UNL1        0.2525
     16 O         138.9876  141.8214  159.7690 O.3     1  UNL1       -0.4708
     17 C         140.5959  144.3493  159.9221 C.1     1  UNL1        0.1035
     18 N         139.9330  145.6751  159.6926 N.1     1  UNL1       -0.1907
     19 C         141.6444  139.8638  167.4743 C.3     1  UNL1        0.0765
     20 C         140.2851  140.4894  167.5789 C.3     1  UNL1        0.0380
     21 C         139.4509  140.2698  168.8060 C.3     1  UNL1        0.0061
     22 C         139.7599  141.3346  166.4564 C.ar    1  UNL1       -0.0253
     23 C         140.1871  142.7671  166.3329 C.ar    1  UNL1       -0.0044
     24 C         139.6620  143.6123  165.2105 C.ar    1  UNL1        0.0059
     25 C         138.7097  143.0248  164.2114 C.ar    1  UNL1        0.0748
     26 C         138.2825  141.5923  164.3348 C.ar    1  UNL1        0.0233
     27 C         138.8076  140.7471  165.4573 C.ar    1  UNL1       -0.0260
     28 C         138.3805  139.3145  165.5808 C.3     1  UNL1        0.0305
     29 C         137.3393  141.2911  163.2081 C.3     1  UNL1        0.2352
     30 O         137.1836  142.5375  162.3883 O.3     1  UNL1       -0.4404
     31 C         138.0305  143.6091  163.0084 C.2     1  UNL1        0.3413
     32 O         138.1732  145.0175  162.5124 O.2     1  UNL1       -0.2449
@<TRIPOS>BOND
     1    15    16    1
     2    16     9    1
     3     9    10   ar
     4    10    11   ar
     5    11     8    1
     6     8     7    1
     7     7     1    1
     8     1     2    1
     9     2     3    1
    10     3     4    1
    11     4    19    1
    12    19    20    1
    13    20    21    1
    14    20    22    1
    15    22    23   ar
    16    23    24   ar
    17    24    25   ar
    18    25    26   ar
    19    26    27   ar
    20    27    28    1
    21    26    29    1
    22    29    30    1
    23    30    31    1
    24    31    32    2
    25     4     5    1
    26     5     6    1
    27    11    12   ar
    28    12    13   ar
    29    13    14   ar
    30    14    17    1
    31    17    18    3
    32    14     9   ar
    33     6     1    1
    34    27    22   ar
    35    31    25    1
