@<TRIPOS>MOLECULE
*****
 26 29 0 0 0
SMALL
GASTEIGER

@<TRIPOS>ATOM
      1 N         140.7066  141.1038  166.7595 N.ar    1  UNL1       -0.2954
      2 C         141.7985  140.1782  166.3111 C.ar    1  UNL1        0.2014
      3 N         142.9559  140.3367  167.2519 N.ar    1  UNL1       -0.2136
      4 C         142.5794  141.3603  168.2818 C.ar    1  UNL1        0.0999
      5 C         143.3228  141.9218  169.4574 C.ar    1  UNL1        0.0207
      6 C         142.6761  142.9575  170.3286 C.ar    1  UNL1        0.0016
      7 C         141.2859  143.4316  170.0242 C.ar    1  UNL1        0.0016
      8 C         140.5425  142.8701  168.8487 C.ar    1  UNL1        0.0188
      9 C         141.1893  141.8344  167.9775 C.ar    1  UNL1        0.0801
     10 N         141.7427  139.2561  165.1294 N.pl3   1  UNL1       -0.2781
     11 C         140.9828  137.9650  165.0536 C.3     1  UNL1        0.0950
     12 C         141.2075  137.3740  163.6933 C.3     1  UNL1        0.0392
     13 C         142.1062  138.2999  162.9284 C.3     1  UNL1        0.0792
     14 C         142.4370  139.4630  163.8159 C.3     1  UNL1        0.1095
     15 N         142.5893  138.0980  161.5228 N.3     1  UNL1       -0.2699
     16 C         141.6347  138.2375  160.3742 C.3     1  UNL1        0.0897
     17 C         144.0272  137.7567  161.2657 C.3     1  UNL1        0.0897
     18 C         139.3672  141.2698  166.1049 C.3     1  UNL1        0.1354
     19 C         138.7134  144.5781  163.1254 C.ar    1  UNL1        0.1387
     20 C         139.9097  144.6089  164.0298 C.ar    1  UNL1        0.0366
     21 C         140.1276  143.5061  165.0229 C.ar    1  UNL1        0.0007
     22 C         139.1493  142.3725  165.1118 C.ar    1  UNL1        0.0007
     23 C         137.9530  142.3417  164.2073 C.ar    1  UNL1        0.0007
     24 C         137.7351  143.4445  163.2141 C.ar    1  UNL1        0.0366
     25 C         139.6705  146.3325  161.4652 C.3     1  UNL1        0.2525
     26 O         138.4955  145.6808  162.1322 O.3     1  UNL1       -0.4714
@<TRIPOS>BOND
     1    25    26    1
     2    26    19    1
     3    19    20   ar
     4    20    21   ar
     5    21    22   ar
     6    22    18    1
     7    18     1    1
     8     1     2   ar
     9     2    10    1
    10    10    11    1
    11    11    12    1
    12    12    13    1
    13    13    15    1
    14    15    16    1
    15    15    17    1
    16    13    14    1
    17     2     3   ar
    18     3     4   ar
    19     4     5   ar
    20     5     6   ar
    21     6     7   ar
    22     7     8   ar
    23     8     9   ar
    24    22    23   ar
    25    23    24   ar
    26    24    19   ar
    27     9     1   ar
    28    14    10    1
    29     9     4   ar
@<TRIPOS>MOLECULE
*****
 26 29 0 0 0
SMALL
GASTEIGER

@<TRIPOS>ATOM
      1 N         140.6910  141.0949  166.7383 N.ar    1  UNL1       -0.2954
      2 C         141.7869  140.1766  166.2848 C.ar    1  UNL1        0.2014
      3 N         142.9472  140.3420  167.2210 N.ar    1  UNL1       -0.2136
      4 C         142.5684  141.3625  168.2531 C.ar    1  UNL1        0.0999
      5 C         143.3130  141.9281  169.4259 C.ar    1  UNL1        0.0207
      6 C         142.6632  142.9590  170.3004 C.ar    1  UNL1        0.0016
      7 C         141.2687  143.4243  170.0021 C.ar    1  UNL1        0.0016
      8 C         140.5241  142.8587  168.8293 C.ar    1  UNL1        0.0188
      9 C         141.1739  141.8278  167.9548 C.ar    1  UNL1        0.0801
     10 N         141.7322  139.2549  165.1027 N.pl3   1  UNL1       -0.2781
     11 C         140.9676  137.9668  165.0237 C.3     1  UNL1        0.0950
     12 C         141.1953  137.3751  163.6643 C.3     1  UNL1        0.0392
     13 C         142.1006  138.2976  162.9031 C.3     1  UNL1        0.0792
     14 C         142.4324  139.4593  163.7921 C.3     1  UNL1        0.1095
     15 N         142.5885  138.0941  161.4993 N.3     1  UNL1       -0.2699
     16 C         144.0280  137.7561  161.2471 C.3     1  UNL1        0.0897
     17 C         141.6368  138.2285  160.3477 C.3     1  UNL1        0.0897
     18 C         139.3479  141.2527  166.0894 C.3     1  UNL1        0.1354
     19 C         138.6868  144.5006  163.0458 C.ar    1  UNL1        0.1387
     20 C         138.2851  143.0891  162.7355 C.ar    1  UNL1        0.0366
     21 C         138.5055  142.0065  163.7501 C.ar    1  UNL1        0.0007
     22 C         139.1275  142.3353  165.0749 C.ar    1  UNL1        0.0007
     23 C         139.5292  143.7469  165.3850 C.ar    1  UNL1        0.0007
     24 C         139.3088  144.8295  164.3705 C.ar    1  UNL1        0.0366
     25 C         139.6316  146.3713  161.5101 C.3     1  UNL1        0.2525
     26 O         138.4664  145.5833  162.0312 O.3     1  UNL1       -0.4714
@<TRIPOS>BOND
     1    25    26    1
     2    26    19    1
     3    19    20   ar
     4    20    21   ar
     5    21    22   ar
     6    22    18    1
     7    18     1    1
     8     1     2   ar
     9     2    10    1
    10    10    11    1
    11    11    12    1
    12    12    13    1
    13    13    15    1
    14    15    16    1
    15    15    17    1
    16    13    14    1
    17     2     3   ar
    18     3     4   ar
    19     4     5   ar
    20     5     6   ar
    21     6     7   ar
    22     7     8   ar
    23     8     9   ar
    24    22    23   ar
    25    23    24   ar
    26    24    19   ar
    27     9     1   ar
    28    14    10    1
    29     9     4   ar
@<TRIPOS>MOLECULE
*****
 26 29 0 0 0
SMALL
GASTEIGER

@<TRIPOS>ATOM
      1 N         140.1117  140.3238  166.1077 N.ar    1  UNL1       -0.2954
      2 C         141.3609  140.0298  165.3311 C.ar    1  UNL1        0.2014
      3 N         142.4376  139.6601  166.3078 N.ar    1  UNL1       -0.2136
      4 C         141.8539  139.7257  167.6881 C.ar    1  UNL1        0.0999
      5 C         142.4457  139.4648  169.0415 C.ar    1  UNL1        0.0207
      6 C         141.5999  139.6142  170.2712 C.ar    1  UNL1        0.0016
      7 C         140.1623  140.0243  170.1475 C.ar    1  UNL1        0.0016
      8 C         139.5706  140.2851  168.7941 C.ar    1  UNL1        0.0188
      9 C         140.4164  140.1358  167.5644 C.ar    1  UNL1        0.0801
     10 N         141.5075  140.0942  163.8397 N.pl3   1  UNL1       -0.2781
     11 C         141.8205  141.3218  163.0367 C.3     1  UNL1        0.0950
     12 C         141.8734  140.9286  161.5901 C.3     1  UNL1        0.0392
     13 C         141.5931  139.4578  161.4991 C.3     1  UNL1        0.0792
     14 C         141.3670  138.9421  162.8894 C.3     1  UNL1        0.1095
     15 N         141.5470  138.6454  160.2390 N.3     1  UNL1       -0.2699
     16 C         142.7344  137.8239  159.8324 C.3     1  UNL1        0.0897
     17 C         140.3135  138.6544  159.3856 C.3     1  UNL1        0.0897
     18 C         138.7898  140.7337  165.5293 C.3     1  UNL1        0.1354
     19 C         138.5034  144.4161  162.9587 C.ar    1  UNL1        0.1387
     20 C         139.1962  144.4812  164.2876 C.ar    1  UNL1        0.0366
     21 C         139.2917  143.2537  165.1444 C.ar    1  UNL1        0.0007
     22 C         138.6943  141.9611  164.6724 C.ar    1  UNL1        0.0007
     23 C         138.0015  141.8962  163.3436 C.ar    1  UNL1        0.0007
     24 C         137.9061  143.1237  162.4868 C.ar    1  UNL1        0.0366
     25 C         139.6566  146.3199  161.6186 C.3     1  UNL1        0.2525
     26 O         138.4079  145.6436  162.1019 O.3     1  UNL1       -0.4714
@<TRIPOS>BOND
     1    25    26    1
     2    26    19    1
     3    19    20   ar
     4    20    21   ar
     5    21    22   ar
     6    22    18    1
     7    18     1    1
     8     1     2   ar
     9     2    10    1
    10    10    11    1
    11    11    12    1
    12    12    13    1
    13    13    15    1
    14    15    16    1
    15    15    17    1
    16    13    14    1
    17     2     3   ar
    18     3     4   ar
    19     4     5   ar
    20     5     6   ar
    21     6     7   ar
    22     7     8   ar
    23     8     9   ar
    24    22    23   ar
    25    23    24   ar
    26    24    19   ar
    27     9     1   ar
    28    14    10    1
    29     9     4   ar
@<TRIPOS>MOLECULE
*****
 26 29 0 0 0
SMALL
GASTEIGER

@<TRIPOS>ATOM
      1 N         142.9051  140.1552  166.6539 N.ar    1  UNL1       -0.2954
      2 C         143.3809  141.4136  165.9905 C.ar    1  UNL1        0.2014
      3 N         143.3433  142.5160  167.0070 N.ar    1  UNL1       -0.2136
      4 C         142.8444  141.9390  168.2986 C.ar    1  UNL1        0.0999
      5 C         142.6017  142.5536  169.6451 C.ar    1  UNL1        0.0207
      6 C         142.0882  141.7091  170.7734 C.ar    1  UNL1        0.0016
      7 C         141.8173  140.2500  170.5552 C.ar    1  UNL1        0.0016
      8 C         142.0600  139.6354  169.2086 C.ar    1  UNL1        0.0188
      9 C         142.5735  140.4799  168.0803 C.ar    1  UNL1        0.0801
     10 N         143.8175  141.5463  164.5616 N.pl3   1  UNL1       -0.2781
     11 C         145.0539  140.9486  163.9584 C.3     1  UNL1        0.0950
     12 C         145.0949  141.3329  162.5090 C.3     1  UNL1        0.0392
     13 C         143.8838  142.1681  162.2165 C.3     1  UNL1        0.0792
     14 C         143.0943  142.3000  163.4851 C.3     1  UNL1        0.1095
     15 N         143.5251  142.7664  160.8886 N.3     1  UNL1       -0.2699
     16 C         142.3510  143.6932  160.7761 C.3     1  UNL1        0.0897
     17 C         144.3405  142.4380  159.6732 C.3     1  UNL1        0.0897
     18 C         142.7824  138.8085  166.0048 C.3     1  UNL1        0.1354
     19 C         139.3403  137.9501  163.2362 C.ar    1  UNL1        0.1387
     20 C         140.7463  137.6715  162.7936 C.ar    1  UNL1        0.0366
     21 C         141.8936  137.9576  163.7165 C.ar    1  UNL1        0.0007
     22 C         141.6351  138.5224  165.0820 C.ar    1  UNL1        0.0007
     23 C         140.2292  138.8010  165.5244 C.ar    1  UNL1        0.0007
     24 C         139.0818  138.5149  164.6015 C.ar    1  UNL1        0.0366
     25 C         137.6582  138.7468  161.4234 C.3     1  UNL1        0.2525
     26 O         138.1930  137.6640  162.3133 O.3     1  UNL1       -0.4714
@<TRIPOS>BOND
     1    25    26    1
     2    26    19    1
     3    19    20   ar
     4    20    21   ar
     5    21    22   ar
     6    22    18    1
     7    18     1    1
     8     1     2   ar
     9     2    10    1
    10    10    11    1
    11    11    12    1
    12    12    13    1
    13    13    15    1
    14    15    16    1
    15    15    17    1
    16    13    14    1
    17     2     3   ar
    18     3     4   ar
    19     4     5   ar
    20     5     6   ar
    21     6     7   ar
    22     7     8   ar
    23     8     9   ar
    24    22    23   ar
    25    23    24   ar
    26    24    19   ar
    27     9     1   ar
    28    14    10    1
    29     9     4   ar
@<TRIPOS>MOLECULE
*****
 26 29 0 0 0
SMALL
GASTEIGER

@<TRIPOS>ATOM
      1 N         143.1152  141.4007  166.7502 N.ar    1  UNL1       -0.2954
      2 C         142.8251  140.0246  166.2283 C.ar    1  UNL1        0.2014
      3 N         142.2689  139.2085  167.3573 N.ar    1  UNL1       -0.2136
      4 C         142.2152  140.0802  168.5769 C.ar    1  UNL1        0.0999
      5 C         141.7577  139.8152  169.9806 C.ar    1  UNL1        0.0207
      6 C         141.8231  140.9051  171.0090 C.ar    1  UNL1        0.0016
      7 C         142.3462  142.2600  170.6338 C.ar    1  UNL1        0.0016
      8 C         142.8037  142.5249  169.2301 C.ar    1  UNL1        0.0188
      9 C         142.7383  141.4350  168.2017 C.ar    1  UNL1        0.0801
     10 N         143.0515  139.5483  164.8241 N.pl3   1  UNL1       -0.2781
     11 C         144.3796  139.4275  164.1374 C.3     1  UNL1        0.0950
     12 C         144.1385  138.9137  162.7489 C.3     1  UNL1        0.0392
     13 C         142.6613  138.7170  162.5774 C.3     1  UNL1        0.0792
     14 C         141.9896  139.1092  163.8600 C.3     1  UNL1        0.1095
     15 N         141.9762  138.2161  161.3406 N.3     1  UNL1       -0.2699
     16 C         140.4781  138.1774  161.2766 C.3     1  UNL1        0.0897
     17 C         142.7893  137.7538  160.1679 C.3     1  UNL1        0.0897
     18 C         143.6826  142.5421  165.9594 C.3     1  UNL1        0.1354
     19 C         140.9934  145.0177  163.3346 C.ar    1  UNL1        0.1387
     20 C         142.4800  145.2095  163.2783 C.ar    1  UNL1        0.0366
     21 C         143.3764  144.3843  164.1532 C.ar    1  UNL1        0.0007
     22 C         142.7862  143.3672  165.0845 C.ar    1  UNL1        0.0007
     23 C         141.2996  143.1754  165.1408 C.ar    1  UNL1        0.0007
     24 C         140.4032  144.0006  164.2659 C.ar    1  UNL1        0.0366
     25 C         140.1468  145.6801  160.9693 C.3     1  UNL1        0.2525
     26 O         140.0970  145.8429  162.4597 O.3     1  UNL1       -0.4714
@<TRIPOS>BOND
     1    25    26    1
     2    26    19    1
     3    19    20   ar
     4    20    21   ar
     5    21    22   ar
     6    22    18    1
     7    18     1    1
     8     1     2   ar
     9     2    10    1
    10    10    11    1
    11    11    12    1
    12    12    13    1
    13    13    15    1
    14    15    16    1
    15    15    17    1
    16    13    14    1
    17     2     3   ar
    18     3     4   ar
    19     4     5   ar
    20     5     6   ar
    21     6     7   ar
    22     7     8   ar
    23     8     9   ar
    24    22    23   ar
    25    23    24   ar
    26    24    19   ar
    27     9     1   ar
    28    14    10    1
    29     9     4   ar
@<TRIPOS>MOLECULE
*****
 26 29 0 0 0
SMALL
GASTEIGER

@<TRIPOS>ATOM
      1 N         141.6084  139.4950  167.0239 N.ar    1  UNL1       -0.2954
      2 C         140.2259  139.5013  166.4420 C.ar    1  UNL1        0.2014
      3 N         139.2902  140.0526  167.4766 N.ar    1  UNL1       -0.2136
      4 C         140.0943  140.3870  168.6979 C.ar    1  UNL1        0.0999
      5 C         139.7070  140.9607  170.0286 C.ar    1  UNL1        0.0207
      6 C         140.7525  141.1898  171.0795 C.ar    1  UNL1        0.0016
      7 C         142.1853  140.8451  170.7997 C.ar    1  UNL1        0.0016
      8 C         142.5726  140.2714  169.4691 C.ar    1  UNL1        0.0188
      9 C         141.5271  140.0423  168.4182 C.ar    1  UNL1        0.0801
     10 N         139.8459  139.0378  165.0670 N.pl3   1  UNL1       -0.2781
     11 C         139.7554  137.6117  164.6109 C.3     1  UNL1        0.0950
     12 C         139.3433  137.6115  163.1686 C.3     1  UNL1        0.0392
     13 C         139.1791  139.0375  162.7333 C.3     1  UNL1        0.0792
     14 C         139.4897  139.9190  163.9066 C.3     1  UNL1        0.1095
     15 N         138.7751  139.5007  161.3650 N.3     1  UNL1       -0.2699
     16 C         137.8248  140.6513  161.2129 C.3     1  UNL1        0.0897
     17 C         139.3215  138.8134  160.1489 C.3     1  UNL1        0.0897
     18 C         142.8537  139.0239  166.3330 C.3     1  UNL1        0.1354
     19 C         144.6505  141.4757  163.0148 C.ar    1  UNL1        0.1387
     20 C         144.5121  139.9902  162.8593 C.ar    1  UNL1        0.0366
     21 C         143.9131  139.1730  163.9654 C.ar    1  UNL1        0.0007
     22 C         143.4526  139.8412  165.2270 C.ar    1  UNL1        0.0007
     23 C         143.5911  141.3267  165.3824 C.ar    1  UNL1        0.0007
     24 C         144.1901  142.1439  164.2764 C.ar    1  UNL1        0.0366
     25 C         144.4701  142.5381  160.6507 C.3     1  UNL1        0.2525
     26 O         145.2495  142.2930  161.9088 O.3     1  UNL1       -0.4714
@<TRIPOS>BOND
     1    25    26    1
     2    26    19    1
     3    19    20   ar
     4    20    21   ar
     5    21    22   ar
     6    22    18    1
     7    18     1    1
     8     1     2   ar
     9     2    10    1
    10    10    11    1
    11    11    12    1
    12    12    13    1
    13    13    15    1
    14    15    16    1
    15    15    17    1
    16    13    14    1
    17     2     3   ar
    18     3     4   ar
    19     4     5   ar
    20     5     6   ar
    21     6     7   ar
    22     7     8   ar
    23     8     9   ar
    24    22    23   ar
    25    23    24   ar
    26    24    19   ar
    27     9     1   ar
    28    14    10    1
    29     9     4   ar
@<TRIPOS>MOLECULE
*****
 26 29 0 0 0
SMALL
GASTEIGER

@<TRIPOS>ATOM
      1 N         141.0830  141.9343  166.1124 N.ar    1  UNL1       -0.2954
      2 C         140.7165  140.6541  165.4218 C.ar    1  UNL1        0.2014
      3 N         139.9758  139.7941  166.4025 N.ar    1  UNL1       -0.2136
      4 C         139.8844  140.5428  167.6991 C.ar    1  UNL1        0.0999
      5 C         139.2665  140.1909  169.0198 C.ar    1  UNL1        0.0207
      6 C         139.3329  141.1618  170.1613 C.ar    1  UNL1        0.0016
      7 C         140.0172  142.4845  169.9820 C.ar    1  UNL1        0.0016
      8 C         140.6351  142.8363  168.6613 C.ar    1  UNL1        0.0188
      9 C         140.5687  141.8655  167.5198 C.ar    1  UNL1        0.0801
     10 N         141.0349  140.2967  164.0003 N.pl3   1  UNL1       -0.2781
     11 C         140.0713  140.3098  162.8508 C.3     1  UNL1        0.0950
     12 C         140.8137  139.8847  161.6187 C.3     1  UNL1        0.0392
     13 C         142.2361  139.6088  162.0066 C.3     1  UNL1        0.0792
     14 C         142.3729  139.8635  163.4785 C.3     1  UNL1        0.1095
     15 N         143.3299  139.1575  161.0846 N.3     1  UNL1       -0.2699
     16 C         143.8014  140.0592  159.9824 C.3     1  UNL1        0.0897
     17 C         143.9521  137.8047  161.2648 C.3     1  UNL1        0.0897
     18 C         141.8322  143.0818  165.5026 C.3     1  UNL1        0.1354
     19 C         140.2307  145.1118  161.8197 C.ar    1  UNL1        0.1387
     20 C         139.4382  145.1344  163.0931 C.ar    1  UNL1        0.0366
     21 C         139.9721  144.4577  164.3207 C.ar    1  UNL1        0.0007
     22 C         141.2984  143.7584  164.2750 C.ar    1  UNL1        0.0007
     23 C         142.0908  143.7359  163.0016 C.ar    1  UNL1        0.0007
     24 C         141.5569  144.4125  161.7740 C.ar    1  UNL1        0.0366
     25 C         140.2602  145.4494  159.2437 C.3     1  UNL1        0.2525
     26 O         139.6968  145.7884  160.5920 O.3     1  UNL1       -0.4714
@<TRIPOS>BOND
     1    25    26    1
     2    26    19    1
     3    19    20   ar
     4    20    21   ar
     5    21    22   ar
     6    22    18    1
     7    18     1    1
     8     1     2   ar
     9     2    10    1
    10    10    11    1
    11    11    12    1
    12    12    13    1
    13    13    15    1
    14    15    16    1
    15    15    17    1
    16    13    14    1
    17     2     3   ar
    18     3     4   ar
    19     4     5   ar
    20     5     6   ar
    21     6     7   ar
    22     7     8   ar
    23     8     9   ar
    24    22    23   ar
    25    23    24   ar
    26    24    19   ar
    27     9     1   ar
    28    14    10    1
    29     9     4   ar
@<TRIPOS>MOLECULE
*****
 26 29 0 0 0
SMALL
GASTEIGER

@<TRIPOS>ATOM
      1 N         140.8424  141.1926  166.4072 N.ar    1  UNL1       -0.2954
      2 C         139.9158  140.0399  166.1565 C.ar    1  UNL1        0.2014
      3 N         139.1908  139.7415  167.4353 N.ar    1  UNL1       -0.2136
      4 C         139.6693  140.7097  168.4763 C.ar    1  UNL1        0.0999
      5 C         139.3074  140.8905  169.9207 C.ar    1  UNL1        0.0207
      6 C         139.9663  141.9682  170.7296 C.ar    1  UNL1        0.0016
      7 C         140.9870  142.8650  170.0942 C.ar    1  UNL1        0.0016
      8 C         141.3489  142.6842  168.6498 C.ar    1  UNL1        0.0188
      9 C         140.6901  141.6065  167.8409 C.ar    1  UNL1        0.0801
     10 N         139.7443  139.3133  164.8555 N.pl3   1  UNL1       -0.2781
     11 C         140.1065  137.8820  164.5906 C.3     1  UNL1        0.0950
     12 C         139.7666  137.5745  163.1623 C.3     1  UNL1        0.0392
     13 C         139.1943  138.8158  162.5445 C.3     1  UNL1        0.0792
     14 C         139.1805  139.8904  163.5909 C.3     1  UNL1        0.1095
     15 N         138.7192  138.9576  161.1288 N.3     1  UNL1       -0.2699
     16 C         137.4156  139.6412  160.8401 C.3     1  UNL1        0.0897
     17 C         139.5476  138.4157  160.0019 C.3     1  UNL1        0.0897
     18 C         141.7602  141.8210  165.4009 C.3     1  UNL1        0.1354
     19 C         140.1035  144.5920  162.2661 C.ar    1  UNL1        0.1387
     20 C         141.0537  143.4993  161.8746 C.ar    1  UNL1        0.0366
     21 C         141.6059  142.5756  162.9196 C.ar    1  UNL1        0.0007
     22 C         141.2080  142.7446  164.3560 C.ar    1  UNL1        0.0007
     23 C         140.2578  143.8373  164.7474 C.ar    1  UNL1        0.0007
     24 C         139.7056  144.7610  163.7024 C.ar    1  UNL1        0.0366
     25 C         140.2075  145.6031  159.8750 C.3     1  UNL1        0.2525
     26 O         139.5513  145.5156  161.2212 O.3     1  UNL1       -0.4714
@<TRIPOS>BOND
     1    25    26    1
     2    26    19    1
     3    19    20   ar
     4    20    21   ar
     5    21    22   ar
     6    22    18    1
     7    18     1    1
     8     1     2   ar
     9     2    10    1
    10    10    11    1
    11    11    12    1
    12    12    13    1
    13    13    15    1
    14    15    16    1
    15    15    17    1
    16    13    14    1
    17     2     3   ar
    18     3     4   ar
    19     4     5   ar
    20     5     6   ar
    21     6     7   ar
    22     7     8   ar
    23     8     9   ar
    24    22    23   ar
    25    23    24   ar
    26    24    19   ar
    27     9     1   ar
    28    14    10    1
    29     9     4   ar
@<TRIPOS>MOLECULE
*****
 26 29 0 0 0
SMALL
GASTEIGER

@<TRIPOS>ATOM
      1 N         139.8024  140.6671  167.0066 N.ar    1  UNL1       -0.2954
      2 C         139.7691  141.9688  166.2619 C.ar    1  UNL1        0.2014
      3 N         140.3262  143.0319  167.1617 N.ar    1  UNL1       -0.2136
      4 C         140.7037  142.3872  168.4625 C.ar    1  UNL1        0.0999
      5 C         141.3004  142.9422  169.7218 C.ar    1  UNL1        0.0207
      6 C         141.5734  142.0357  170.8852 C.ar    1  UNL1        0.0016
      7 C         141.2497  140.5742  170.7893 C.ar    1  UNL1        0.0016
      8 C         140.6530  140.0192  169.5300 C.ar    1  UNL1        0.0188
      9 C         140.3800  140.9257  168.3666 C.ar    1  UNL1        0.0801
     10 N         139.2670  142.1718  164.8631 N.pl3   1  UNL1       -0.2781
     11 C         137.8532  142.4828  164.4703 C.3     1  UNL1        0.0950
     12 C         137.8029  142.6026  162.9759 C.3     1  UNL1        0.0392
     13 C         139.1857  142.3656  162.4452 C.3     1  UNL1        0.0792
     14 C         140.0906  142.0994  163.6115 C.3     1  UNL1        0.1095
     15 N         139.5923  142.3905  161.0015 N.3     1  UNL1       -0.2699
     16 C         139.9742  143.6876  160.3522 C.3     1  UNL1        0.0897
     17 C         139.6170  141.1183  160.2073 C.3     1  UNL1        0.0897
     18 C         139.3394  139.3398  166.4832 C.3     1  UNL1        0.1354
     19 C         140.9399  137.7784  162.5781 C.ar    1  UNL1        0.1387
     20 C         139.4664  138.0003  162.7496 C.ar    1  UNL1        0.0366
     21 C         138.9329  138.5208  164.0513 C.ar    1  UNL1        0.0007
     22 C         139.8729  138.8194  165.1816 C.ar    1  UNL1        0.0007
     23 C         141.3465  138.5974  165.0100 C.ar    1  UNL1        0.0007
     24 C         141.8799  138.0769  163.7082 C.ar    1  UNL1        0.0366
     25 C         142.8551  137.6327  160.8284 C.3     1  UNL1        0.2525
     26 O         141.4734  137.2579  161.2764 O.3     1  UNL1       -0.4714
@<TRIPOS>BOND
     1    25    26    1
     2    26    19    1
     3    19    20   ar
     4    20    21   ar
     5    21    22   ar
     6    22    18    1
     7    18     1    1
     8     1     2   ar
     9     2    10    1
    10    10    11    1
    11    11    12    1
    12    12    13    1
    13    13    15    1
    14    15    16    1
    15    15    17    1
    16    13    14    1
    17     2     3   ar
    18     3     4   ar
    19     4     5   ar
    20     5     6   ar
    21     6     7   ar
    22     7     8   ar
    23     8     9   ar
    24    22    23   ar
    25    23    24   ar
    26    24    19   ar
    27     9     1   ar
    28    14    10    1
    29     9     4   ar
