@<TRIPOS>MOLECULE
*****
 40 43 0 0 0
SMALL
GASTEIGER

@<TRIPOS>ATOM
      1 C         141.2287  139.6066  161.2339 C.ar    1  UNL1        0.0674
      2 C         140.9567  138.1315  161.2313 C.ar    1  UNL1        0.1133
      3 N         140.1861  137.5091  162.3576 N.ar    1  UNL1       -0.2425
      4 C         139.6875  138.3617  163.4865 C.ar    1  UNL1        0.0825
      5 C         138.9168  137.7392  164.6128 C.ar    1  UNL1        0.0230
      6 C         138.4181  138.5919  165.7417 C.ar    1  UNL1        0.0741
      7 C         138.6902  140.0671  165.7442 C.ar    1  UNL1        0.0183
      8 C         139.4608  140.6895  164.6179 C.ar    1  UNL1        0.0463
      9 C         139.9595  139.8368  163.4890 C.ar    1  UNL1        0.0320
     10 C         140.7301  140.4593  162.3627 C.ar    1  UNL1        0.0188
     11 C         144.3113  142.0967  156.7286 C.2     1  UNL1        0.2490
     12 O         143.7197  143.2381  155.9558 O.2     1  UNL1       -0.2699
     13 N         143.5407  141.4742  157.8549 N.am    1  UNL1       -0.2726
     14 C         144.1323  140.3328  158.6276 C.3     1  UNL1        0.1151
     15 C         143.3617  139.7102  159.7540 C.3     1  UNL1        0.1124
     16 N         141.9994  140.2291  160.1075 N.pl3   1  UNL1       -0.3028
     17 C         141.4078  141.3706  159.3348 C.3     1  UNL1        0.1124
     18 C         142.1784  141.9931  158.2085 C.3     1  UNL1        0.1151
     19 C         146.8258  142.5283  156.2376 C.2     1  UNL1       -0.0041
     20 C         145.6736  141.5778  156.3750 C.2     1  UNL1        0.0548
     21 C         148.1881  142.0094  155.8841 C.3     1  UNL1        0.0991
     22 C         147.7888  142.5269  153.3695 C.3     1  UNL1        0.0899
     23 N         148.7227  142.1919  154.4946 N.3     1  UNL1       -0.2665
     24 C         150.1913  142.0393  154.2300 C.3     1  UNL1        0.0899
     25 C         137.6475  137.9694  166.8680 C.3     1  UNL1        0.4187
     26 F         136.8768  137.3470  167.9944 F       1  UNL1       -0.1659
     27 F         137.5888  139.2979  167.5620 F       1  UNL1       -0.1659
     28 F         137.7062  136.6410  166.1740 F       1  UNL1       -0.1659
     29 N         139.7328  142.1646  164.6205 N.pl3   1  UNL1       -0.3290
     30 H         139.1397  142.7754  164.1261 H       1  UNL1        0.1471
     31 C         140.9085  142.7092  165.3763 C.3     1  UNL1        0.1145
     32 C         141.2599  142.1481  166.7224 C.ar    1  UNL1        0.0035
     33 C         142.1903  140.9762  166.8268 C.ar    1  UNL1       -0.0022
     34 C         142.5417  140.4152  168.1728 C.ar    1  UNL1        0.0060
     35 C         141.9626  141.0261  169.4144 C.ar    1  UNL1        0.0752
     36 C         141.0322  142.1980  169.3100 C.ar    1  UNL1        0.2898
     37 C         140.6808  142.7590  167.9639 C.ar    1  UNL1        0.0727
     38 N         140.4531  142.8089  170.5515 N.pl3   1  UNL1        0.0809
     39 O         139.7795  144.1474  170.4849 O.2     1  UNL1        0.0415
     40 O         140.5477  142.0812  171.8598 O.co2   1  UNL1       -0.5760
@<TRIPOS>UNITY_ATOM_ATTR
38 1
charge 1
40 1
charge -1
@<TRIPOS>BOND
     1    22    23    1
     2    23    24    1
     3    23    21    1
     4    21    19    1
     5    19    20    2
     6    20    11    1
     7    11    12    2
     8    11    13   am
     9    13    14    1
    10    14    15    1
    11    15    16    1
    12    16     1    1
    13     1     2   ar
    14     2     3   ar
    15     3     4   ar
    16     4     5   ar
    17     5     6   ar
    18     6    25    1
    19    25    26    1
    20    25    27    1
    21    25    28    1
    22     6     7   ar
    23     7     8   ar
    24     8    29    1
    25    29    31    1
    26    31    32    1
    27    32    33   ar
    28    33    34   ar
    29    34    35   ar
    30    35    36   ar
    31    36    38    1
    32    38    39    2
    33    38    40    1
    34    36    37   ar
    35     8     9   ar
    36     9    10   ar
    37    16    17    1
    38    17    18    1
    39    18    13    1
    40    10     1   ar
    41     9     4   ar
    42    37    32   ar
    43    29    30    1
@<TRIPOS>MOLECULE
*****
 40 43 0 0 0
SMALL
GASTEIGER

@<TRIPOS>ATOM
      1 C         142.1559  143.6352  162.0331 C.ar    1  UNL1        0.0674
      2 C         143.5789  143.3248  162.3919 C.ar    1  UNL1        0.1133
      3 N         143.9163  142.8426  163.7715 N.ar    1  UNL1       -0.2425
      4 C         142.8308  142.6707  164.7924 C.ar    1  UNL1        0.0825
      5 C         143.1683  142.1885  166.1721 C.ar    1  UNL1        0.0230
      6 C         142.0828  142.0166  167.1930 C.ar    1  UNL1        0.0741
      7 C         140.6598  142.3270  166.8341 C.ar    1  UNL1        0.0183
      8 C         140.3223  142.8092  165.4544 C.ar    1  UNL1        0.0463
      9 C         141.4079  142.9811  164.4336 C.ar    1  UNL1        0.0320
     10 C         141.0704  143.4633  163.0539 C.ar    1  UNL1        0.0188
     11 C         140.8059  145.5642  156.5143 C.2     1  UNL1        0.2490
     12 O         141.5983  145.0806  155.3360 O.2     1  UNL1       -0.2699
     13 N         141.1434  145.0820  157.8939 N.am    1  UNL1       -0.2726
     14 C         140.3510  145.5656  159.0722 C.3     1  UNL1        0.1151
     15 C         140.6886  145.0833  160.4519 C.3     1  UNL1        0.1124
     16 N         141.8184  144.1175  160.6533 N.pl3   1  UNL1       -0.3028
     17 C         142.6107  143.6339  159.4751 C.3     1  UNL1        0.1124
     18 C         142.2733  144.1161  158.0954 C.3     1  UNL1        0.1151
     19 C         139.8701  147.7420  155.4505 C.2     1  UNL1       -0.0041
     20 C         139.6761  146.5300  156.3128 C.2     1  UNL1        0.0548
     21 C         138.7403  148.7078  155.2491 C.3     1  UNL1        0.0991
     22 C         138.0989  149.6402  157.5878 C.3     1  UNL1        0.0899
     23 N         138.5714  149.8696  156.1827 N.3     1  UNL1       -0.2665
     24 C         138.8749  151.2609  155.7113 C.3     1  UNL1        0.0899
     25 C         142.4203  141.5344  168.5726 C.3     1  UNL1        0.4187
     26 F         142.7577  141.0521  169.9524 F       1  UNL1       -0.1659
     27 F         141.1199  140.7890  168.6302 F       1  UNL1       -0.1659
     28 F         143.7207  142.2797  168.5151 F       1  UNL1       -0.1659
     29 N         138.8994  143.1196  165.0956 N.pl3   1  UNL1       -0.3290
     30 H         138.5412  144.0249  165.2416 H       1  UNL1        0.1471
     31 C         138.0222  142.0506  164.5144 C.3     1  UNL1        0.1145
     32 C         138.3932  140.6061  164.6756 C.ar    1  UNL1        0.0035
     33 C         138.1013  139.8961  165.9643 C.ar    1  UNL1       -0.0022
     34 C         138.4722  138.4517  166.1255 C.ar    1  UNL1        0.0060
     35 C         139.1351  137.7173  164.9980 C.ar    1  UNL1        0.0752
     36 C         139.4270  138.4273  163.7093 C.ar    1  UNL1        0.2898
     37 C         139.0560  139.8718  163.5481 C.ar    1  UNL1        0.0727
     38 N         140.0899  137.6929  162.5818 N.pl3   1  UNL1        0.0809
     39 O         141.3256  136.8822  162.8385 O.2     1  UNL1        0.0415
     40 O         139.5171  137.7691  161.1977 O.co2   1  UNL1       -0.5760
@<TRIPOS>UNITY_ATOM_ATTR
38 1
charge 1
40 1
charge -1
@<TRIPOS>BOND
     1    22    23    1
     2    23    24    1
     3    23    21    1
     4    21    19    1
     5    19    20    2
     6    20    11    1
     7    11    12    2
     8    11    13   am
     9    13    14    1
    10    14    15    1
    11    15    16    1
    12    16     1    1
    13     1     2   ar
    14     2     3   ar
    15     3     4   ar
    16     4     5   ar
    17     5     6   ar
    18     6    25    1
    19    25    26    1
    20    25    27    1
    21    25    28    1
    22     6     7   ar
    23     7     8   ar
    24     8    29    1
    25    29    31    1
    26    31    32    1
    27    32    33   ar
    28    33    34   ar
    29    34    35   ar
    30    35    36   ar
    31    36    38    1
    32    38    39    2
    33    38    40    1
    34    36    37   ar
    35     8     9   ar
    36     9    10   ar
    37    16    17    1
    38    17    18    1
    39    18    13    1
    40    10     1   ar
    41     9     4   ar
    42    37    32   ar
    43    29    30    1
@<TRIPOS>MOLECULE
*****
 40 43 0 0 0
SMALL
GASTEIGER

@<TRIPOS>ATOM
      1 C         143.1099  140.3644  162.7488 C.ar    1  UNL1        0.0674
      2 C         144.1200  141.4370  163.0304 C.ar    1  UNL1        0.1133
      3 N         144.1742  142.0792  164.3849 N.ar    1  UNL1       -0.2425
      4 C         143.2183  141.6488  165.4578 C.ar    1  UNL1        0.0825
      5 C         143.2725  142.2910  166.8123 C.ar    1  UNL1        0.0230
      6 C         142.3166  141.8607  167.8852 C.ar    1  UNL1        0.0741
      7 C         141.3065  140.7880  167.6035 C.ar    1  UNL1        0.0183
      8 C         141.2524  140.1459  166.2490 C.ar    1  UNL1        0.0463
      9 C         142.2082  140.5762  165.1762 C.ar    1  UNL1        0.0320
     10 C         142.1541  139.9341  163.8217 C.ar    1  UNL1        0.0188
     11 C         142.8931  137.7956  157.3308 C.2     1  UNL1        0.2490
     12 O         143.2266  138.5965  156.1072 O.2     1  UNL1       -0.2699
     13 N         142.9473  138.4378  158.6853 N.am    1  UNL1       -0.2726
     14 C         142.6138  137.6368  159.9090 C.3     1  UNL1        0.1151
     15 C         142.6681  138.2791  161.2635 C.3     1  UNL1        0.1124
     16 N         143.0557  139.7222  161.3943 N.pl3   1  UNL1       -0.3028
     17 C         143.3892  140.5231  160.1706 C.3     1  UNL1        0.1124
     18 C         143.3350  139.8809  158.8162 C.3     1  UNL1        0.1151
     19 C         143.4777  135.3635  156.6284 C.2     1  UNL1       -0.0041
     20 C         142.5054  136.3525  157.2000 C.2     1  UNL1        0.0548
     21 C         143.0901  133.9204  156.4976 C.3     1  UNL1        0.0991
     22 C         144.3366  131.7819  155.7083 C.3     1  UNL1        0.0899
     23 N         144.1076  132.8456  156.7410 N.3     1  UNL1       -0.2665
     24 C         144.8961  132.8342  158.0169 C.3     1  UNL1        0.0899
     25 C         142.3708  142.5028  169.2396 C.3     1  UNL1        0.4187
     26 F         142.4250  143.1451  170.5941 F       1  UNL1       -0.1659
     27 F         143.8611  142.6260  169.1216 F       1  UNL1       -0.1659
     28 F         140.8806  142.3797  169.3576 F       1  UNL1       -0.1659
     29 N         140.2423  139.0733  165.9674 N.pl3   1  UNL1       -0.3290
     30 H         140.5184  138.1284  165.9538 H       1  UNL1        0.1471
     31 C         138.8115  139.4403  165.7067 C.3     1  UNL1        0.1145
     32 C         138.4603  140.2988  164.5278 C.ar    1  UNL1        0.0035
     33 C         138.2082  139.6689  163.1899 C.ar    1  UNL1       -0.0022
     34 C         137.8570  140.5273  162.0111 C.ar    1  UNL1        0.0060
     35 C         137.7579  142.0156  162.1700 C.ar    1  UNL1        0.0752
     36 C         138.0099  142.6455  163.5078 C.ar    1  UNL1        0.2898
     37 C         138.3611  141.7870  164.6867 C.ar    1  UNL1        0.0727
     38 N         137.9107  144.1337  163.6667 N.pl3   1  UNL1        0.0809
     39 O         137.8677  144.7403  165.0379 O.2     1  UNL1        0.0415
     40 O         137.8546  145.0153  162.4545 O.co2   1  UNL1       -0.5760
@<TRIPOS>UNITY_ATOM_ATTR
38 1
charge 1
40 1
charge -1
@<TRIPOS>BOND
     1    22    23    1
     2    23    24    1
     3    23    21    1
     4    21    19    1
     5    19    20    2
     6    20    11    1
     7    11    12    2
     8    11    13   am
     9    13    14    1
    10    14    15    1
    11    15    16    1
    12    16     1    1
    13     1     2   ar
    14     2     3   ar
    15     3     4   ar
    16     4     5   ar
    17     5     6   ar
    18     6    25    1
    19    25    26    1
    20    25    27    1
    21    25    28    1
    22     6     7   ar
    23     7     8   ar
    24     8    29    1
    25    29    31    1
    26    31    32    1
    27    32    33   ar
    28    33    34   ar
    29    34    35   ar
    30    35    36   ar
    31    36    38    1
    32    38    39    2
    33    38    40    1
    34    36    37   ar
    35     8     9   ar
    36     9    10   ar
    37    16    17    1
    38    17    18    1
    39    18    13    1
    40    10     1   ar
    41     9     4   ar
    42    37    32   ar
    43    29    30    1
@<TRIPOS>MOLECULE
*****
 40 43 0 0 0
SMALL
GASTEIGER

@<TRIPOS>ATOM
      1 C         139.5488  141.0537  159.4836 C.ar    1  UNL1        0.0674
      2 C         139.4510  142.5089  159.1334 C.ar    1  UNL1        0.1133
      3 N         139.1993  143.5238  160.2088 N.ar    1  UNL1       -0.2425
      4 C         139.0453  143.0835  161.6344 C.ar    1  UNL1        0.0825
      5 C         138.7935  144.0985  162.7098 C.ar    1  UNL1        0.0230
      6 C         138.6395  143.6582  164.1354 C.ar    1  UNL1        0.0741
      7 C         138.7373  142.2028  164.4856 C.ar    1  UNL1        0.0183
      8 C         138.9891  141.1879  163.4102 C.ar    1  UNL1        0.0463
      9 C         139.1431  141.6283  161.9846 C.ar    1  UNL1        0.0320
     10 C         139.3948  140.6134  160.9092 C.ar    1  UNL1        0.0188
     11 C         140.5558  136.9939  155.1819 C.2     1  UNL1        0.2490
     12 O         139.6252  136.8969  154.0095 O.2     1  UNL1       -0.2699
     13 N         140.3041  138.0088  156.2573 N.am    1  UNL1       -0.2726
     14 C         141.2347  138.1058  157.4297 C.3     1  UNL1        0.1151
     15 C         140.9829  139.1208  158.5051 C.3     1  UNL1        0.1124
     16 N         139.8006  140.0387  158.4081 N.pl3   1  UNL1       -0.3028
     17 C         138.8700  139.9417  157.2357 C.3     1  UNL1        0.1124
     18 C         139.1217  138.9268  156.1603 C.3     1  UNL1        0.1151
     19 C         141.5408  134.5901  155.2216 C.2     1  UNL1       -0.0041
     20 C         141.7381  136.0760  155.2789 C.2     1  UNL1        0.0548
     21 C         142.7232  133.6722  155.3186 C.3     1  UNL1        0.0991
     22 C         142.9031  131.5743  156.8407 C.3     1  UNL1        0.0899
     23 N         143.0830  133.0492  156.6348 N.3     1  UNL1       -0.2665
     24 C         143.6227  133.9011  157.7452 C.3     1  UNL1        0.0899
     25 C         138.3877  144.6731  165.2109 C.3     1  UNL1        0.4187
     26 F         138.1359  145.6880  166.2863 F       1  UNL1       -0.1659
     27 F         136.9460  144.2622  165.2611 F       1  UNL1       -0.1659
     28 F         139.8295  145.0839  165.1606 F       1  UNL1       -0.1659
     29 N         139.0868  139.7327  163.7604 N.pl3   1  UNL1       -0.3290
     30 H         139.3885  139.0830  163.0850 H       1  UNL1        0.1471
     31 C         138.7251  139.2673  165.1398 C.3     1  UNL1        0.1145
     32 C         139.6659  139.5074  166.2831 C.ar    1  UNL1        0.0035
     33 C         141.1468  139.3957  166.0720 C.ar    1  UNL1       -0.0022
     34 C         142.0876  139.6357  167.2153 C.ar    1  UNL1        0.0060
     35 C         141.5476  139.9875  168.5698 C.ar    1  UNL1        0.0752
     36 C         140.0668  140.0992  168.7810 C.ar    1  UNL1        0.2898
     37 C         139.1259  139.8591  167.6376 C.ar    1  UNL1        0.0727
     38 N         139.5267  140.4510  170.1354 N.pl3   1  UNL1        0.0809
     39 O         139.1609  139.3642  171.1024 O.2     1  UNL1        0.0415
     40 O         139.3525  141.8895  170.5229 O.co2   1  UNL1       -0.5760
@<TRIPOS>UNITY_ATOM_ATTR
38 1
charge 1
40 1
charge -1
@<TRIPOS>BOND
     1    22    23    1
     2    23    24    1
     3    23    21    1
     4    21    19    1
     5    19    20    2
     6    20    11    1
     7    11    12    2
     8    11    13   am
     9    13    14    1
    10    14    15    1
    11    15    16    1
    12    16     1    1
    13     1     2   ar
    14     2     3   ar
    15     3     4   ar
    16     4     5   ar
    17     5     6   ar
    18     6    25    1
    19    25    26    1
    20    25    27    1
    21    25    28    1
    22     6     7   ar
    23     7     8   ar
    24     8    29    1
    25    29    31    1
    26    31    32    1
    27    32    33   ar
    28    33    34   ar
    29    34    35   ar
    30    35    36   ar
    31    36    38    1
    32    38    39    2
    33    38    40    1
    34    36    37   ar
    35     8     9   ar
    36     9    10   ar
    37    16    17    1
    38    17    18    1
    39    18    13    1
    40    10     1   ar
    41     9     4   ar
    42    37    32   ar
    43    29    30    1
@<TRIPOS>MOLECULE
*****
 40 43 0 0 0
SMALL
GASTEIGER

@<TRIPOS>ATOM
      1 C         139.5494  142.2895  163.3467 C.ar    1  UNL1        0.0674
      2 C         140.3001  143.4140  163.9961 C.ar    1  UNL1        0.1133
      3 N         140.6005  143.3656  165.4648 N.ar    1  UNL1       -0.2425
      4 C         140.1503  142.1926  166.2842 C.ar    1  UNL1        0.0825
      5 C         140.4508  142.1442  167.7531 C.ar    1  UNL1        0.0230
      6 C         140.0006  140.9712  168.5724 C.ar    1  UNL1        0.0741
      7 C         139.2499  139.8466  167.9230 C.ar    1  UNL1        0.0183
      8 C         138.9494  139.8950  166.4542 C.ar    1  UNL1        0.0463
      9 C         139.3997  141.0680  165.6348 C.ar    1  UNL1        0.0320
     10 C         139.0992  141.1164  164.1660 C.ar    1  UNL1        0.0188
     11 C         138.3475  142.4831  157.4714 C.2     1  UNL1        0.2490
     12 O         138.9236  143.5783  156.6237 O.2     1  UNL1       -0.2699
     13 N         138.6479  142.4346  158.9402 N.am    1  UNL1       -0.2726
     14 C         138.0719  141.3394  159.7879 C.3     1  UNL1        0.1151
     15 C         138.3724  141.2910  161.2567 C.3     1  UNL1        0.1124
     16 N         139.2489  142.3378  161.8778 N.pl3   1  UNL1       -0.3028
     17 C         139.8250  143.4331  161.0301 C.3     1  UNL1        0.1124
     18 C         139.5245  143.4815  159.5614 C.3     1  UNL1        0.1151
     19 C         136.2354  141.8402  156.1018 C.2     1  UNL1       -0.0041
     20 C         137.4709  141.4362  156.8504 C.2     1  UNL1        0.0548
     21 C         135.3588  140.7934  155.4808 C.3     1  UNL1        0.0991
     22 C         132.8239  141.3400  155.3206 C.3     1  UNL1        0.0899
     23 N         133.9550  140.6020  155.9734 N.3     1  UNL1       -0.2665
     24 C         133.6823  139.6726  157.1187 C.3     1  UNL1        0.0899
     25 C         140.3011  140.9228  170.0412 C.3     1  UNL1        0.4187
     26 F         140.6016  140.8743  171.5100 F       1  UNL1       -0.1659
     27 F         141.3638  139.8945  169.7899 F       1  UNL1       -0.1659
     28 F         139.2384  141.9511  170.2925 F       1  UNL1       -0.1659
     29 N         138.1988  138.7704  165.8048 N.pl3   1  UNL1       -0.3290
     30 H         137.2184  138.8141  165.7255 H       1  UNL1        0.1471
     31 C         138.9417  137.5794  165.2762 C.3     1  UNL1        0.1145
     32 C         140.2087  137.7712  164.4965 C.ar    1  UNL1        0.0035
     33 C         140.2031  137.6105  163.0051 C.ar    1  UNL1       -0.0022
     34 C         141.4700  137.8023  162.2253 C.ar    1  UNL1        0.0060
     35 C         142.7426  138.1548  162.9369 C.ar    1  UNL1        0.0752
     36 C         142.7482  138.3155  164.4282 C.ar    1  UNL1        0.2898
     37 C         141.4812  138.1237  165.2080 C.ar    1  UNL1        0.0727
     38 N         144.0208  138.6680  165.1398 N.pl3   1  UNL1        0.0809
     39 O         144.2835  138.1325  166.5161 O.2     1  UNL1        0.0415
     40 O         145.0305  139.5559  164.4751 O.co2   1  UNL1       -0.5760
@<TRIPOS>UNITY_ATOM_ATTR
38 1
charge 1
40 1
charge -1
@<TRIPOS>BOND
     1    22    23    1
     2    23    24    1
     3    23    21    1
     4    21    19    1
     5    19    20    2
     6    20    11    1
     7    11    12    2
     8    11    13   am
     9    13    14    1
    10    14    15    1
    11    15    16    1
    12    16     1    1
    13     1     2   ar
    14     2     3   ar
    15     3     4   ar
    16     4     5   ar
    17     5     6   ar
    18     6    25    1
    19    25    26    1
    20    25    27    1
    21    25    28    1
    22     6     7   ar
    23     7     8   ar
    24     8    29    1
    25    29    31    1
    26    31    32    1
    27    32    33   ar
    28    33    34   ar
    29    34    35   ar
    30    35    36   ar
    31    36    38    1
    32    38    39    2
    33    38    40    1
    34    36    37   ar
    35     8     9   ar
    36     9    10   ar
    37    16    17    1
    38    17    18    1
    39    18    13    1
    40    10     1   ar
    41     9     4   ar
    42    37    32   ar
    43    29    30    1
@<TRIPOS>MOLECULE
*****
 40 43 0 0 0
SMALL
GASTEIGER

@<TRIPOS>ATOM
      1 C         142.3498  139.6454  162.3542 C.ar    1  UNL1        0.0674
      2 C         143.4710  139.7306  163.3470 C.ar    1  UNL1        0.1133
      3 N         143.1691  139.9033  164.8061 N.ar    1  UNL1       -0.2425
      4 C         141.7461  139.9908  165.2724 C.ar    1  UNL1        0.0825
      5 C         141.4443  140.1635  166.7316 C.ar    1  UNL1        0.0230
      6 C         140.0213  140.2511  167.1979 C.ar    1  UNL1        0.0741
      7 C         138.9002  140.1659  166.2050 C.ar    1  UNL1        0.0183
      8 C         139.2020  139.9931  164.7459 C.ar    1  UNL1        0.0463
      9 C         140.6250  139.9056  164.2796 C.ar    1  UNL1        0.0320
     10 C         140.9268  139.7329  162.8205 C.ar    1  UNL1        0.0188
     11 C         143.5570  138.9546  156.5176 C.2     1  UNL1        0.2490
     12 O         144.3474  139.9991  155.7864 O.2     1  UNL1       -0.2699
     13 N         143.2552  139.1273  157.9767 N.am    1  UNL1       -0.2726
     14 C         142.4649  138.0829  158.7078 C.3     1  UNL1        0.1151
     15 C         142.1631  138.2556  160.1670 C.3     1  UNL1        0.1124
     16 N         142.6516  139.4727  160.8950 N.pl3   1  UNL1       -0.3028
     17 C         143.4419  140.5171  160.1638 C.3     1  UNL1        0.1124
     18 C         143.7438  140.3444  158.7047 C.3     1  UNL1        0.1151
     19 C         143.9453  136.5251  155.6828 C.2     1  UNL1       -0.0041
     20 C         143.0685  137.7376  155.7896 C.2     1  UNL1        0.0548
     21 C         143.4568  135.3080  154.9548 C.3     1  UNL1        0.0991
     22 C         141.3997  133.7245  155.0595 C.3     1  UNL1        0.0899
     23 N         142.6497  134.2732  155.6812 N.3     1  UNL1       -0.2665
     24 C         143.0926  133.7871  157.0294 C.3     1  UNL1        0.0899
     25 C         139.7195  140.4238  168.6570 C.3     1  UNL1        0.4187
     26 F         139.4177  140.5965  170.1162 F       1  UNL1       -0.1659
     27 F         140.9632  141.2469  168.8168 F       1  UNL1       -0.1659
     28 F         138.4758  139.6006  168.4971 F       1  UNL1       -0.1659
     29 N         138.0808  139.9080  163.7531 N.pl3   1  UNL1       -0.3290
     30 H         137.7863  139.0306  163.4173 H       1  UNL1        0.1471
     31 C         137.4084  141.1595  163.2719 C.3     1  UNL1        0.1145
     32 C         138.1348  142.4707  163.3292 C.ar    1  UNL1        0.0035
     33 C         138.0501  143.3217  164.5616 C.ar    1  UNL1       -0.0022
     34 C         138.7764  144.6328  164.6190 C.ar    1  UNL1        0.0060
     35 C         139.5874  145.0931  163.4440 C.ar    1  UNL1        0.0752
     36 C         139.6721  144.2421  162.2117 C.ar    1  UNL1        0.2898
     37 C         138.9457  142.9309  162.1543 C.ar    1  UNL1        0.0727
     38 N         140.4830  144.7023  161.0367 N.pl3   1  UNL1        0.0809
     39 O         141.9809  144.7120  161.1168 O.2     1  UNL1        0.0415
     40 O         139.7962  145.1527  159.7816 O.co2   1  UNL1       -0.5760
@<TRIPOS>UNITY_ATOM_ATTR
38 1
charge 1
40 1
charge -1
@<TRIPOS>BOND
     1    22    23    1
     2    23    24    1
     3    23    21    1
     4    21    19    1
     5    19    20    2
     6    20    11    1
     7    11    12    2
     8    11    13   am
     9    13    14    1
    10    14    15    1
    11    15    16    1
    12    16     1    1
    13     1     2   ar
    14     2     3   ar
    15     3     4   ar
    16     4     5   ar
    17     5     6   ar
    18     6    25    1
    19    25    26    1
    20    25    27    1
    21    25    28    1
    22     6     7   ar
    23     7     8   ar
    24     8    29    1
    25    29    31    1
    26    31    32    1
    27    32    33   ar
    28    33    34   ar
    29    34    35   ar
    30    35    36   ar
    31    36    38    1
    32    38    39    2
    33    38    40    1
    34    36    37   ar
    35     8     9   ar
    36     9    10   ar
    37    16    17    1
    38    17    18    1
    39    18    13    1
    40    10     1   ar
    41     9     4   ar
    42    37    32   ar
    43    29    30    1
@<TRIPOS>MOLECULE
*****
 40 43 0 0 0
SMALL
GASTEIGER

@<TRIPOS>ATOM
      1 C         139.6991  142.4191  163.4412 C.ar    1  UNL1        0.0674
      2 C         140.4903  143.4920  164.1288 C.ar    1  UNL1        0.1133
      3 N         140.7782  143.3872  165.5971 N.ar    1  UNL1       -0.2425
      4 C         140.2749  142.2094  166.3779 C.ar    1  UNL1        0.0825
      5 C         140.5628  142.1046  167.8463 C.ar    1  UNL1        0.0230
      6 C         140.0595  140.9268  168.6270 C.ar    1  UNL1        0.0741
      7 C         139.2683  139.8538  167.9393 C.ar    1  UNL1        0.0183
      8 C         138.9804  139.9587  166.4710 C.ar    1  UNL1        0.0463
      9 C         139.4837  141.1365  165.6903 C.ar    1  UNL1        0.0320
     10 C         139.1959  141.2413  164.2219 C.ar    1  UNL1        0.0188
     11 C         138.5476  142.8385  157.5676 C.2     1  UNL1        0.2490
     12 O         139.1878  143.9234  156.7534 O.2     1  UNL1       -0.2699
     13 N         138.8354  142.7336  159.0360 N.am    1  UNL1       -0.2726
     14 C         138.1952  141.6487  159.8502 C.3     1  UNL1        0.1151
     15 C         138.4831  141.5438  161.3186 C.3     1  UNL1        0.1124
     16 N         139.4112  142.5239  161.9727 N.pl3   1  UNL1       -0.3028
     17 C         140.0515  143.6089  161.1585 C.3     1  UNL1        0.1124
     18 C         139.7636  143.7138  159.6902 C.3     1  UNL1        0.1151
     19 C         138.0677  141.0936  155.7034 C.2     1  UNL1       -0.0041
     20 C         137.6194  141.8584  156.9135 C.2     1  UNL1        0.0548
     21 C         137.1396  140.1135  155.0493 C.3     1  UNL1        0.0991
     22 C         138.8800  138.2184  155.4090 C.3     1  UNL1        0.0899
     23 N         137.5703  138.6905  154.8506 N.3     1  UNL1       -0.2665
     24 C         136.6914  137.7396  154.0934 C.3     1  UNL1        0.0899
     25 C         140.3474  140.8219  170.0954 C.3     1  UNL1        0.4187
     26 F         140.6353  140.7171  171.5638 F       1  UNL1       -0.1659
     27 F         138.9478  141.2662  170.4015 F       1  UNL1       -0.1659
     28 F         141.7470  140.3776  169.7892 F       1  UNL1       -0.1659
     29 N         138.1893  138.8858  165.7834 N.pl3   1  UNL1       -0.3290
     30 H         137.2093  138.9585  165.7238 H       1  UNL1        0.1471
     31 C         138.8912  137.7021  165.1865 C.3     1  UNL1        0.1145
     32 C         139.6062  137.8371  163.8748 C.ar    1  UNL1        0.0035
     33 C         138.8257  137.8592  162.5940 C.ar    1  UNL1       -0.0022
     34 C         139.5406  137.9942  161.2823 C.ar    1  UNL1        0.0060
     35 C         141.0361  138.1071  161.2513 C.ar    1  UNL1        0.0752
     36 C         141.8166  138.0849  162.5321 C.ar    1  UNL1        0.2898
     37 C         141.1016  137.9499  163.8438 C.ar    1  UNL1        0.0727
     38 N         143.3120  138.1978  162.5011 N.pl3   1  UNL1        0.0809
     39 O         144.0330  138.9154  163.6035 O.2     1  UNL1        0.0415
     40 O         144.0864  137.5930  161.3677 O.co2   1  UNL1       -0.5760
@<TRIPOS>UNITY_ATOM_ATTR
38 1
charge 1
40 1
charge -1
@<TRIPOS>BOND
     1    22    23    1
     2    23    24    1
     3    23    21    1
     4    21    19    1
     5    19    20    2
     6    20    11    1
     7    11    12    2
     8    11    13   am
     9    13    14    1
    10    14    15    1
    11    15    16    1
    12    16     1    1
    13     1     2   ar
    14     2     3   ar
    15     3     4   ar
    16     4     5   ar
    17     5     6   ar
    18     6    25    1
    19    25    26    1
    20    25    27    1
    21    25    28    1
    22     6     7   ar
    23     7     8   ar
    24     8    29    1
    25    29    31    1
    26    31    32    1
    27    32    33   ar
    28    33    34   ar
    29    34    35   ar
    30    35    36   ar
    31    36    38    1
    32    38    39    2
    33    38    40    1
    34    36    37   ar
    35     8     9   ar
    36     9    10   ar
    37    16    17    1
    38    17    18    1
    39    18    13    1
    40    10     1   ar
    41     9     4   ar
    42    37    32   ar
    43    29    30    1
@<TRIPOS>MOLECULE
*****
 40 43 0 0 0
SMALL
GASTEIGER

@<TRIPOS>ATOM
      1 C         143.2392  140.5915  162.9168 C.ar    1  UNL1        0.0674
      2 C         144.2513  141.6655  163.1856 C.ar    1  UNL1        0.1133
      3 N         144.3295  142.2996  164.5427 N.ar    1  UNL1       -0.2425
      4 C         143.3956  141.8598  165.6310 C.ar    1  UNL1        0.0825
      5 C         143.4739  142.4940  166.9881 C.ar    1  UNL1        0.0230
      6 C         142.5400  142.0542  168.0764 C.ar    1  UNL1        0.0741
      7 C         141.5278  140.9803  167.8076 C.ar    1  UNL1        0.0183
      8 C         141.4496  140.3461  166.4505 C.ar    1  UNL1        0.0463
      9 C         142.3835  140.7859  165.3622 C.ar    1  UNL1        0.0320
     10 C         142.3053  140.1517  164.0052 C.ar    1  UNL1        0.0188
     11 C         142.9262  138.0548  157.4884 C.2     1  UNL1        0.2490
     12 O         143.3289  138.8345  156.2719 O.2     1  UNL1       -0.2699
     13 N         143.0044  138.6890  158.8455 N.am    1  UNL1       -0.2726
     14 C         142.6017  137.9093  160.0620 C.3     1  UNL1        0.1151
     15 C         142.6800  138.5435  161.4191 C.3     1  UNL1        0.1124
     16 N         143.1609  139.9573  161.5597 N.pl3   1  UNL1       -0.3028
     17 C         143.5637  140.7370  160.3432 C.3     1  UNL1        0.1124
     18 C         143.4854  140.1028  158.9861 C.3     1  UNL1        0.1151
     19 C         143.2248  135.6623  156.5205 C.2     1  UNL1       -0.0041
     20 C         142.4452  136.6410  157.3479 C.2     1  UNL1        0.0548
     21 C         142.7438  134.2485  156.3799 C.3     1  UNL1        0.0991
     22 C         142.2933  134.5836  153.8432 C.3     1  UNL1        0.0899
     23 N         142.0866  133.8030  155.1074 N.3     1  UNL1       -0.2665
     24 C         141.2226  132.5768  155.0988 C.3     1  UNL1        0.0899
     25 C         142.6182  142.6884  169.4335 C.3     1  UNL1        0.4187
     26 F         142.6965  143.3226  170.7907 F       1  UNL1       -0.1659
     27 F         144.0137  142.1638  169.5982 F       1  UNL1       -0.1659
     28 F         141.2226  143.2130  169.2688 F       1  UNL1       -0.1659
     29 N         140.4375  139.2722  166.1818 N.pl3   1  UNL1       -0.3290
     30 H         140.7191  138.3298  166.1398 H       1  UNL1        0.1471
     31 C         138.9963  139.6341  165.9770 C.3     1  UNL1        0.1145
     32 C         138.5580  140.2693  164.6907 C.ar    1  UNL1        0.0035
     33 C         138.1003  141.6977  164.6774 C.ar    1  UNL1       -0.0022
     34 C         137.6620  142.3328  163.3911 C.ar    1  UNL1        0.0060
     35 C         137.6814  141.5396  162.1181 C.ar    1  UNL1        0.0752
     36 C         138.1391  140.1112  162.1315 C.ar    1  UNL1        0.2898
     37 C         138.5774  139.4760  163.4178 C.ar    1  UNL1        0.0727
     38 N         138.1585  139.3179  160.8585 N.pl3   1  UNL1        0.0809
     39 O         139.0020  138.0817  160.7580 O.2     1  UNL1        0.0415
     40 O         137.3344  139.7610  159.6862 O.co2   1  UNL1       -0.5760
@<TRIPOS>UNITY_ATOM_ATTR
38 1
charge 1
40 1
charge -1
@<TRIPOS>BOND
     1    22    23    1
     2    23    24    1
     3    23    21    1
     4    21    19    1
     5    19    20    2
     6    20    11    1
     7    11    12    2
     8    11    13   am
     9    13    14    1
    10    14    15    1
    11    15    16    1
    12    16     1    1
    13     1     2   ar
    14     2     3   ar
    15     3     4   ar
    16     4     5   ar
    17     5     6   ar
    18     6    25    1
    19    25    26    1
    20    25    27    1
    21    25    28    1
    22     6     7   ar
    23     7     8   ar
    24     8    29    1
    25    29    31    1
    26    31    32    1
    27    32    33   ar
    28    33    34   ar
    29    34    35   ar
    30    35    36   ar
    31    36    38    1
    32    38    39    2
    33    38    40    1
    34    36    37   ar
    35     8     9   ar
    36     9    10   ar
    37    16    17    1
    38    17    18    1
    39    18    13    1
    40    10     1   ar
    41     9     4   ar
    42    37    32   ar
    43    29    30    1
@<TRIPOS>MOLECULE
*****
 40 43 0 0 0
SMALL
GASTEIGER

@<TRIPOS>ATOM
      1 C         139.3856  139.4599  163.4972 C.ar    1  UNL1        0.0674
      2 C         138.1139  139.1449  164.2276 C.ar    1  UNL1        0.1133
      3 N         138.0628  139.2482  165.7231 N.ar    1  UNL1       -0.2425
      4 C         139.2833  139.6666  166.4882 C.ar    1  UNL1        0.0825
      5 C         139.2321  139.7699  167.9838 C.ar    1  UNL1        0.0230
      6 C         140.4526  140.1882  168.7489 C.ar    1  UNL1        0.0741
      7 C         141.7243  140.5032  168.0184 C.ar    1  UNL1        0.0183
      8 C         141.7755  140.3998  166.5229 C.ar    1  UNL1        0.0463
      9 C         140.5550  139.9815  165.7578 C.ar    1  UNL1        0.0320
     10 C         140.6061  139.8782  164.2623 C.ar    1  UNL1        0.0188
     11 C         139.5904  139.0467  157.5149 C.2     1  UNL1        0.2490
     12 O         138.4353  139.5312  156.6897 O.2     1  UNL1       -0.2699
     13 N         139.5392  139.1500  159.0104 N.am    1  UNL1       -0.2726
     14 C         140.6943  138.6654  159.8356 C.3     1  UNL1        0.1151
     15 C         140.6431  138.7687  161.3313 C.3     1  UNL1        0.1124
     16 N         139.4368  139.3566  162.0016 N.pl3   1  UNL1       -0.3028
     17 C         138.2818  139.8411  161.1763 C.3     1  UNL1        0.1124
     18 C         138.3329  139.7378  159.6808 C.3     1  UNL1        0.1151
     19 C         140.6821  137.1645  156.0951 C.2     1  UNL1       -0.0041
     20 C         140.7967  138.4588  156.8446 C.2     1  UNL1        0.0548
     21 C         141.8883  136.5767  155.4248 C.3     1  UNL1        0.0991
     22 C         141.8616  135.2452  153.1939 C.3     1  UNL1        0.0899
     23 N         141.7780  135.2729  154.6914 N.3     1  UNL1       -0.2665
     24 C         141.5839  133.9967  155.4554 C.3     1  UNL1        0.0899
     25 C         140.4014  140.2915  170.2445 C.3     1  UNL1        0.4187
     26 F         140.3502  140.3949  171.7401 F       1  UNL1       -0.1659
     27 F         139.2769  141.2785  170.1378 F       1  UNL1       -0.1659
     28 F         141.5259  139.3045  170.3511 F       1  UNL1       -0.1659
     29 N         143.0471  140.7148  165.7925 N.pl3   1  UNL1       -0.3290
     30 H         143.5023  140.0140  165.2719 H       1  UNL1        0.1471
     31 C         143.6253  142.0975  165.8551 C.3     1  UNL1        0.1145
     32 C         143.0532  143.1891  165.0000 C.ar    1  UNL1        0.0035
     33 C         143.9569  144.0128  164.1312 C.ar    1  UNL1       -0.0022
     34 C         143.3849  145.1043  163.2761 C.ar    1  UNL1        0.0060
     35 C         141.9090  145.3723  163.2898 C.ar    1  UNL1        0.0752
     36 C         141.0053  144.5486  164.1586 C.ar    1  UNL1        0.2898
     37 C         141.5774  143.4570  165.0137 C.ar    1  UNL1        0.0727
     38 N         139.5295  144.8165  164.1723 N.pl3   1  UNL1        0.0809
     39 O         138.8203  145.0422  165.4746 O.2     1  UNL1        0.0415
     40 O         138.7629  144.8587  162.8837 O.co2   1  UNL1       -0.5760
@<TRIPOS>UNITY_ATOM_ATTR
38 1
charge 1
40 1
charge -1
@<TRIPOS>BOND
     1    22    23    1
     2    23    24    1
     3    23    21    1
     4    21    19    1
     5    19    20    2
     6    20    11    1
     7    11    12    2
     8    11    13   am
     9    13    14    1
    10    14    15    1
    11    15    16    1
    12    16     1    1
    13     1     2   ar
    14     2     3   ar
    15     3     4   ar
    16     4     5   ar
    17     5     6   ar
    18     6    25    1
    19    25    26    1
    20    25    27    1
    21    25    28    1
    22     6     7   ar
    23     7     8   ar
    24     8    29    1
    25    29    31    1
    26    31    32    1
    27    32    33   ar
    28    33    34   ar
    29    34    35   ar
    30    35    36   ar
    31    36    38    1
    32    38    39    2
    33    38    40    1
    34    36    37   ar
    35     8     9   ar
    36     9    10   ar
    37    16    17    1
    38    17    18    1
    39    18    13    1
    40    10     1   ar
    41     9     4   ar
    42    37    32   ar
    43    29    30    1
