@<TRIPOS>MOLECULE
*****
 38 42 0 0 0
SMALL
GASTEIGER

@<TRIPOS>ATOM
      1 C         142.7613  138.3752  160.7052 C.ar    1  UNL1        0.2221
      2 N         142.8358  137.5638  159.4458 N.ar    1  UNL1       -0.2119
      3 C         142.7173  138.2381  158.1111 C.ar    1  UNL1        0.1050
      4 C         142.5243  139.7237  158.0359 C.ar    1  UNL1        0.0596
      5 C         142.4497  140.5351  159.2953 C.ar    1  UNL1        0.1683
      6 N         142.5683  139.8608  160.6299 N.ar    1  UNL1       -0.1944
      7 N         142.2567  142.0206  159.2201 N.ar    1  UNL1       -0.2096
      8 C         141.8855  142.9204  160.3614 C.ar    1  UNL1        0.1175
      9 C         141.8003  144.3232  159.8370 C.ar    1  UNL1        0.0796
     10 C         142.1190  144.2904  158.3716 C.ar    1  UNL1        0.0939
     11 C         142.1501  145.4730  157.4493 C.3     1  UNL1        0.0553
     12 N         142.4010  142.8673  157.9903 N.ar    1  UNL1       -0.1668
     13 N         141.4569  145.5444  160.6375 N.pl3   1  UNL1       -0.3294
     14 H         142.1031  146.2836  160.7095 H       1  UNL1        0.1469
     15 C         140.1287  145.6394  161.3282 C.3     1  UNL1        0.1014
     16 C         140.0226  145.3394  162.7940 C.3     1  UNL1        0.0572
     17 N         141.3429  145.8727  163.2654 N.3     1  UNL1       -0.3219
     18 C         139.4578  144.8541  164.0962 C.3     1  UNL1        0.0173
     19 C         138.6653  144.7018  162.8318 C.3     1  UNL1        0.0173
     20 H         141.8606  146.2492  162.4713 H       1  UNL1        0.1188
     21 H         141.8800  145.1195  163.6951 H       1  UNL1        0.1188
     22 N         142.8798  137.7009  162.0399 N.pl3   1  UNL1       -0.2825
     23 H         143.5946  137.0425  162.1970 H       1  UNL1        0.1551
     24 C         141.3058  140.4461  166.3306 C.ar    1  UNL1        0.1554
     25 N         140.0395  140.3163  167.1241 N.ar    1  UNL1       -0.1646
     26 N         139.2127  139.2297  166.5030 N.ar    1  UNL1       -0.2487
     27 C         137.8668  138.7662  166.9762 C.3     1  UNL1        0.1537
     28 C         139.9680  138.6879  165.3258 C.ar    1  UNL1        0.0796
     29 C         139.6450  137.6072  164.3371 C.ar    1  UNL1        0.0201
     30 C         140.6156  137.2782  163.2418 C.ar    1  UNL1        0.0162
     31 C         141.9092  138.0300  163.1352 C.ar    1  UNL1        0.0506
     32 C         142.2322  139.1107  164.1239 C.ar    1  UNL1        0.0179
     33 C         141.2616  139.4397  165.2192 C.ar    1  UNL1        0.0423
     34 C         144.1182  143.1851  165.7486 C.3     1  UNL1        0.1110
     35 N         143.0034  142.2186  165.4782 N.am    1  UNL1       -0.2979
     36 C         142.4206  141.4126  166.6011 C.2     1  UNL1        0.2654
     37 O         142.9527  141.5731  167.9942 O.2     1  UNL1       -0.2684
     38 H         142.6541  142.1133  164.5637 H       1  UNL1        0.1498
@<TRIPOS>BOND
     1    34    35    1
     2    35    36   am
     3    36    37    2
     4    36    24    1
     5    24    25   ar
     6    25    26   ar
     7    26    27    1
     8    26    28   ar
     9    28    29   ar
    10    29    30   ar
    11    30    31   ar
    12    31    22    1
    13    22     1    1
    14     1     2   ar
    15     2     3   ar
    16     3     4   ar
    17     4     5   ar
    18     5     7    1
    19     7     8   ar
    20     8     9   ar
    21     9    13    1
    22    13    15    1
    23    15    16    1
    24    16    17    1
    25    16    18    1
    26    18    19    1
    27     9    10   ar
    28    10    11    1
    29    10    12   ar
    30     5     6   ar
    31    31    32   ar
    32    32    33   ar
    33    33    24   ar
    34    33    28   ar
    35     6     1   ar
    36    12     7   ar
    37    19    16    1
    38    35    38    1
    39    22    23    1
    40    13    14    1
    41    17    20    1
    42    17    21    1
@<TRIPOS>MOLECULE
*****
 38 42 0 0 0
SMALL
GASTEIGER

@<TRIPOS>ATOM
      1 C         143.6065  139.1860  160.9580 C.ar    1  UNL1        0.2221
      2 N         143.5375  138.3598  159.7079 N.ar    1  UNL1       -0.2119
      3 C         142.9087  138.9252  158.4690 C.ar    1  UNL1        0.1050
      4 C         142.3488  140.3167  158.4802 C.ar    1  UNL1        0.0596
      5 C         142.4178  141.1429  159.7302 C.ar    1  UNL1        0.1683
      6 N         143.0467  140.5776  160.9691 N.ar    1  UNL1       -0.1944
      7 N         141.8580  142.5345  159.7414 N.ar    1  UNL1       -0.2096
      8 C         141.6340  143.3850  160.9564 C.ar    1  UNL1        0.1175
      9 C         141.0615  144.6960  160.5055 C.ar    1  UNL1        0.0796
     10 C         140.9316  144.6557  159.0116 C.ar    1  UNL1        0.0939
     11 C         140.4023  145.7578  158.1425 C.3     1  UNL1        0.0553
     12 N         141.4239  143.3198  158.5394 N.ar    1  UNL1       -0.1668
     13 N         140.6849  145.8455  161.3925 N.pl3   1  UNL1       -0.3294
     14 H         141.2971  146.6097  161.4945 H       1  UNL1        0.1469
     15 C         139.3755  145.8307  162.1241 C.3     1  UNL1        0.1014
     16 C         139.1999  144.9556  163.3297 C.3     1  UNL1        0.0572
     17 N         140.4646  145.2754  164.0701 N.3     1  UNL1       -0.3219
     18 C         138.5850  143.9695  164.2782 C.3     1  UNL1        0.0173
     19 C         137.8741  144.3319  163.0080 C.3     1  UNL1        0.0173
     20 H         141.0085  145.9536  163.5368 H       1  UNL1        0.1188
     21 H         141.0110  144.4230  164.1937 H       1  UNL1        0.1188
     22 N         144.2354  138.6206  162.1969 N.pl3   1  UNL1       -0.2825
     23 H         144.9501  137.9477  162.1230 H       1  UNL1        0.1551
     24 C         143.5152  142.3186  165.9692 C.ar    1  UNL1        0.1554
     25 N         142.9081  142.1725  167.3330 N.ar    1  UNL1       -0.1646
     26 N         142.4999  140.7397  167.5075 N.ar    1  UNL1       -0.2487
     27 C         141.8508  140.1498  168.7243 C.3     1  UNL1        0.1537
     28 C         142.8546  140.0004  166.2515 C.ar    1  UNL1        0.0796
     29 C         142.6873  138.5646  165.8507 C.ar    1  UNL1        0.0201
     30 C         143.1476  138.1048  164.4992 C.ar    1  UNL1        0.0162
     31 C         143.7751  139.0806  163.5485 C.ar    1  UNL1        0.0506
     32 C         143.9424  140.5163  163.9493 C.ar    1  UNL1        0.0179
     33 C         143.4822  140.9762  165.3008 C.ar    1  UNL1        0.0423
     34 C         143.9922  145.4211  163.5407 C.3     1  UNL1        0.1110
     35 N         143.4476  144.1549  164.1323 N.am    1  UNL1       -0.2979
     36 C         144.0598  143.5849  165.3776 C.2     1  UNL1        0.2654
     37 O         145.2164  144.2813  166.0311 O.2     1  UNL1       -0.2684
     38 H         142.6885  143.6978  163.7033 H       1  UNL1        0.1498
@<TRIPOS>BOND
     1    34    35    1
     2    35    36   am
     3    36    37    2
     4    36    24    1
     5    24    25   ar
     6    25    26   ar
     7    26    27    1
     8    26    28   ar
     9    28    29   ar
    10    29    30   ar
    11    30    31   ar
    12    31    22    1
    13    22     1    1
    14     1     2   ar
    15     2     3   ar
    16     3     4   ar
    17     4     5   ar
    18     5     7    1
    19     7     8   ar
    20     8     9   ar
    21     9    13    1
    22    13    15    1
    23    15    16    1
    24    16    17    1
    25    16    18    1
    26    18    19    1
    27     9    10   ar
    28    10    11    1
    29    10    12   ar
    30     5     6   ar
    31    31    32   ar
    32    32    33   ar
    33    33    24   ar
    34    33    28   ar
    35     6     1   ar
    36    12     7   ar
    37    19    16    1
    38    35    38    1
    39    22    23    1
    40    13    14    1
    41    17    20    1
    42    17    21    1
@<TRIPOS>MOLECULE
*****
 38 42 0 0 0
SMALL
GASTEIGER

@<TRIPOS>ATOM
      1 C         143.4351  140.0605  161.5869 C.ar    1  UNL1        0.2221
      2 N         142.7333  138.8070  161.1555 N.ar    1  UNL1       -0.2119
      3 C         142.0617  137.9347  162.1744 C.ar    1  UNL1        0.1050
      4 C         142.0919  138.3160  163.6248 C.ar    1  UNL1        0.0596
      5 C         142.7937  139.5695  164.0563 C.ar    1  UNL1        0.1683
      6 N         143.4653  140.4418  163.0374 N.ar    1  UNL1       -0.1944
      7 N         142.8239  139.9508  165.5067 N.ar    1  UNL1       -0.2096
      8 C         142.6344  139.0196  166.6673 C.ar    1  UNL1        0.1175
      9 C         142.7423  139.8236  167.9291 C.ar    1  UNL1        0.0796
     10 C         142.9986  141.2517  167.5482 C.ar    1  UNL1        0.0939
     11 C         143.1737  142.3996  168.4978 C.3     1  UNL1        0.0553
     12 N         143.0490  141.3303  166.0511 N.ar    1  UNL1       -0.1668
     13 N         142.6162  139.2927  169.3263 N.pl3   1  UNL1       -0.3294
     14 H         143.3714  138.8175  169.7424 H       1  UNL1        0.1469
     15 C         141.3394  139.4857  170.0895 C.3     1  UNL1        0.1014
     16 C         141.0592  140.7962  170.7634 C.3     1  UNL1        0.0572
     17 N         142.1487  140.7971  171.7943 N.3     1  UNL1       -0.3219
     18 C         140.4006  142.1063  171.0792 C.3     1  UNL1        0.0173
     19 C         139.8723  141.2504  169.9664 C.3     1  UNL1        0.0173
     20 H         142.7013  139.9443  171.7059 H       1  UNL1        0.1188
     21 H         141.7353  140.8393  172.7258 H       1  UNL1        0.1188
     22 N         144.1067  140.9327  160.5681 N.pl3   1  UNL1       -0.2825
     23 H         145.0491  140.7761  160.3305 H       1  UNL1        0.1551
     24 C         140.3676  144.7324  160.4895 C.ar    1  UNL1        0.1554
     25 N         140.0021  145.6766  159.3828 N.ar    1  UNL1       -0.1646
     26 N         140.8957  145.3879  158.2131 N.ar    1  UNL1       -0.2487
     27 C         140.8751  146.0973  156.8916 C.3     1  UNL1        0.1537
     28 C         141.8135  144.2652  158.5969 C.ar    1  UNL1        0.0796
     29 C         142.9042  143.5595  157.8470 C.ar    1  UNL1        0.0201
     30 C         143.6685  142.4487  158.5041 C.ar    1  UNL1        0.0162
     31 C         143.3422  142.0436  159.9110 C.ar    1  UNL1        0.0506
     32 C         142.2515  142.7493  160.6608 C.ar    1  UNL1        0.0179
     33 C         141.4871  143.8601  160.0038 C.ar    1  UNL1        0.0423
     34 C         137.7202  144.0076  163.3558 C.3     1  UNL1        0.1110
     35 N         138.3615  144.0688  162.0012 N.am    1  UNL1       -0.2979
     36 C         139.7263  144.6711  161.8441 C.2     1  UNL1        0.2654
     37 O         140.4496  145.2122  163.0415 O.2     1  UNL1       -0.2684
     38 H         137.8867  143.7137  161.2153 H       1  UNL1        0.1498
@<TRIPOS>BOND
     1    34    35    1
     2    35    36   am
     3    36    37    2
     4    36    24    1
     5    24    25   ar
     6    25    26   ar
     7    26    27    1
     8    26    28   ar
     9    28    29   ar
    10    29    30   ar
    11    30    31   ar
    12    31    22    1
    13    22     1    1
    14     1     2   ar
    15     2     3   ar
    16     3     4   ar
    17     4     5   ar
    18     5     7    1
    19     7     8   ar
    20     8     9   ar
    21     9    13    1
    22    13    15    1
    23    15    16    1
    24    16    17    1
    25    16    18    1
    26    18    19    1
    27     9    10   ar
    28    10    11    1
    29    10    12   ar
    30     5     6   ar
    31    31    32   ar
    32    32    33   ar
    33    33    24   ar
    34    33    28   ar
    35     6     1   ar
    36    12     7   ar
    37    19    16    1
    38    35    38    1
    39    22    23    1
    40    13    14    1
    41    17    20    1
    42    17    21    1
@<TRIPOS>MOLECULE
*****
 38 42 0 0 0
SMALL
GASTEIGER

@<TRIPOS>ATOM
      1 C         143.6974  139.5163  159.9653 C.ar    1  UNL1        0.2221
      2 N         143.6802  138.7941  158.6507 N.ar    1  UNL1       -0.2119
      3 C         142.9406  139.3782  157.4837 C.ar    1  UNL1        0.1050
      4 C         142.2181  140.6844  157.6313 C.ar    1  UNL1        0.0596
      5 C         142.2353  141.4066  158.9459 C.ar    1  UNL1        0.1683
      6 N         142.9750  140.8226  160.1129 N.ar    1  UNL1       -0.1944
      7 N         141.5129  142.7128  159.0935 N.ar    1  UNL1       -0.2096
      8 C         140.8488  143.2171  160.3404 C.ar    1  UNL1        0.1175
      9 C         140.2531  144.5601  160.0377 C.ar    1  UNL1        0.0796
     10 C         140.5492  144.8858  158.6037 C.ar    1  UNL1        0.0939
     11 C         140.1387  146.1341  157.8802 C.3     1  UNL1        0.0553
     12 N         141.3278  143.7441  158.0202 N.ar    1  UNL1       -0.1668
     13 N         139.4947  145.4254  160.9999 N.pl3   1  UNL1       -0.3294
     14 H         138.8182  146.0576  160.6655 H       1  UNL1        0.1469
     15 C         139.7670  145.3274  162.4718 C.3     1  UNL1        0.1014
     16 C         138.7327  144.7446  163.3887 C.3     1  UNL1        0.0572
     17 N         137.5985  144.5680  162.4232 N.3     1  UNL1       -0.3219
     18 C         138.0924  144.2231  164.6409 C.3     1  UNL1        0.0173
     19 C         139.5078  144.7188  164.6727 C.3     1  UNL1        0.0173
     20 H         137.8865  144.8873  161.4982 H       1  UNL1        0.1188
     21 H         136.7965  145.1144  162.7371 H       1  UNL1        0.1188
     22 N         144.4371  138.9323  161.1323 N.pl3   1  UNL1       -0.2825
     23 H         145.2648  138.4203  160.9841 H       1  UNL1        0.1551
     24 C         140.5959  138.8324  164.8281 C.ar    1  UNL1        0.1554
     25 N         140.6727  139.1939  166.2818 N.ar    1  UNL1       -0.1646
     26 N         142.0799  139.6193  166.5799 N.ar    1  UNL1       -0.2487
     27 C         142.6025  140.0651  167.9134 C.3     1  UNL1        0.1537
     28 C         142.8727  139.5207  165.3104 C.ar    1  UNL1        0.0796
     29 C         144.3113  139.8109  165.0004 C.ar    1  UNL1        0.0201
     30 C         144.8327  139.6148  163.6077 C.ar    1  UNL1        0.0162
     31 C         143.9156  139.1284  162.5250 C.ar    1  UNL1        0.0506
     32 C         142.4770  138.8382  162.8350 C.ar    1  UNL1        0.0179
     33 C         141.9555  139.0343  164.2277 C.ar    1  UNL1        0.0423
     34 C         137.8211  138.4235  162.0203 C.3     1  UNL1        0.1110
     35 N         139.0430  138.9028  162.7462 N.am    1  UNL1       -0.2979
     36 C         139.3739  138.3530  164.1021 C.2     1  UNL1        0.2654
     37 O         138.4827  137.3240  164.7319 O.2     1  UNL1       -0.2684
     38 H         139.6279  139.5783  162.3328 H       1  UNL1        0.1498
@<TRIPOS>BOND
     1    34    35    1
     2    35    36   am
     3    36    37    2
     4    36    24    1
     5    24    25   ar
     6    25    26   ar
     7    26    27    1
     8    26    28   ar
     9    28    29   ar
    10    29    30   ar
    11    30    31   ar
    12    31    22    1
    13    22     1    1
    14     1     2   ar
    15     2     3   ar
    16     3     4   ar
    17     4     5   ar
    18     5     7    1
    19     7     8   ar
    20     8     9   ar
    21     9    13    1
    22    13    15    1
    23    15    16    1
    24    16    17    1
    25    16    18    1
    26    18    19    1
    27     9    10   ar
    28    10    11    1
    29    10    12   ar
    30     5     6   ar
    31    31    32   ar
    32    32    33   ar
    33    33    24   ar
    34    33    28   ar
    35     6     1   ar
    36    12     7   ar
    37    19    16    1
    38    35    38    1
    39    22    23    1
    40    13    14    1
    41    17    20    1
    42    17    21    1
@<TRIPOS>MOLECULE
*****
 38 42 0 0 0
SMALL
GASTEIGER

@<TRIPOS>ATOM
      1 C         143.8577  140.5156  161.7032 C.ar    1  UNL1        0.2221
      2 N         144.1412  139.2036  161.0337 N.ar    1  UNL1       -0.2119
      3 C         143.5241  137.9428  161.5627 C.ar    1  UNL1        0.1050
      4 C         142.6236  137.9941  162.7611 C.ar    1  UNL1        0.0596
      5 C         142.3401  139.3062  163.4307 C.ar    1  UNL1        0.1683
      6 N         142.9571  140.5669  162.9017 N.ar    1  UNL1       -0.1944
      7 N         141.4396  139.3575  164.6291 N.ar    1  UNL1       -0.2096
      8 C         141.8393  139.7679  166.0154 C.ar    1  UNL1        0.1175
      9 C         140.6280  139.6714  166.8948 C.ar    1  UNL1        0.0796
     10 C         139.4796  139.2014  166.0520 C.ar    1  UNL1        0.0939
     11 C         138.0760  138.9666  166.5262 C.3     1  UNL1        0.0553
     12 N         139.9812  139.0074  164.6517 N.ar    1  UNL1       -0.1668
     13 N         140.5744  139.9892  168.3598 N.pl3   1  UNL1       -0.3294
     14 H         140.2256  139.3233  168.9955 H       1  UNL1        0.1469
     15 C         141.0522  141.3216  168.8562 C.3     1  UNL1        0.1014
     16 C         140.3060  142.0260  169.9503 C.3     1  UNL1        0.0572
     17 N         139.9388  140.8540  170.8114 N.3     1  UNL1       -0.3219
     18 C         139.6873  143.1373  170.7453 C.3     1  UNL1        0.0173
     19 C         140.4140  143.4426  169.4691 C.3     1  UNL1        0.0173
     20 H         140.2999  139.9973  170.3917 H       1  UNL1        0.1188
     21 H         138.9235  140.7933  170.8882 H       1  UNL1        0.1188
     22 N         144.4748  141.7763  161.1742 N.pl3   1  UNL1       -0.2825
     23 H         145.3798  142.0386  161.4593 H       1  UNL1        0.1551
     24 C         140.5585  145.1597  159.8939 C.ar    1  UNL1        0.1554
     25 N         140.2420  145.7809  158.5658 N.ar    1  UNL1       -0.1646
     26 N         141.2498  145.2864  157.5709 N.ar    1  UNL1       -0.2487
     27 C         141.3080  145.6541  156.1179 C.3     1  UNL1        0.1537
     28 C         142.1891  144.3595  158.2842 C.ar    1  UNL1        0.0796
     29 C         143.3782  143.5768  157.8118 C.ar    1  UNL1        0.0201
     30 C         144.1401  142.7157  158.7751 C.ar    1  UNL1        0.0162
     31 C         143.7128  142.6374  160.2109 C.ar    1  UNL1        0.0506
     32 C         142.5237  143.4202  160.6832 C.ar    1  UNL1        0.0179
     33 C         141.7618  144.2813  159.7199 C.ar    1  UNL1        0.0423
     34 C         138.1286  144.5331  162.9686 C.3     1  UNL1        0.1110
     35 N         138.8830  144.3143  161.6907 N.am    1  UNL1       -0.2979
     36 C         139.8041  145.3785  161.1718 C.2     1  UNL1        0.2654
     37 O         139.9706  146.6615  161.9309 O.2     1  UNL1       -0.2684
     38 H         138.7737  143.4722  161.1926 H       1  UNL1        0.1498
@<TRIPOS>BOND
     1    34    35    1
     2    35    36   am
     3    36    37    2
     4    36    24    1
     5    24    25   ar
     6    25    26   ar
     7    26    27    1
     8    26    28   ar
     9    28    29   ar
    10    29    30   ar
    11    30    31   ar
    12    31    22    1
    13    22     1    1
    14     1     2   ar
    15     2     3   ar
    16     3     4   ar
    17     4     5   ar
    18     5     7    1
    19     7     8   ar
    20     8     9   ar
    21     9    13    1
    22    13    15    1
    23    15    16    1
    24    16    17    1
    25    16    18    1
    26    18    19    1
    27     9    10   ar
    28    10    11    1
    29    10    12   ar
    30     5     6   ar
    31    31    32   ar
    32    32    33   ar
    33    33    24   ar
    34    33    28   ar
    35     6     1   ar
    36    12     7   ar
    37    19    16    1
    38    35    38    1
    39    22    23    1
    40    13    14    1
    41    17    20    1
    42    17    21    1
@<TRIPOS>MOLECULE
*****
 38 42 0 0 0
SMALL
GASTEIGER

@<TRIPOS>ATOM
      1 C         143.2594  139.8916  158.9247 C.ar    1  UNL1        0.2221
      2 N         144.4146  140.5549  158.2352 N.ar    1  UNL1       -0.2119
      3 C         144.5249  142.0509  158.2275 C.ar    1  UNL1        0.1050
      4 C         143.4800  142.8835  158.9093 C.ar    1  UNL1        0.0596
      5 C         142.3248  142.2202  159.5989 C.ar    1  UNL1        0.1683
      6 N         142.2145  140.7243  159.6065 N.ar    1  UNL1       -0.1944
      7 N         141.2799  143.0527  160.2807 N.ar    1  UNL1       -0.2096
      8 C         139.9554  142.5639  160.7875 C.ar    1  UNL1        0.1175
      9 C         139.2329  143.7294  161.3955 C.ar    1  UNL1        0.0796
     10 C         140.1109  144.9385  161.2644 C.ar    1  UNL1        0.0939
     11 C         139.7816  146.3229  161.7390 C.3     1  UNL1        0.0553
     12 N         141.3760  144.5203  160.5754 N.ar    1  UNL1       -0.1668
     13 N         137.8715  143.6922  162.0242 N.pl3   1  UNL1       -0.3294
     14 H         137.0728  143.8798  161.4800 H       1  UNL1        0.1469
     15 C         137.7271  143.3693  163.4819 C.3     1  UNL1        0.1014
     16 C         137.7952  141.9441  163.9447 C.3     1  UNL1        0.0572
     17 N         136.7732  141.3264  163.0371 N.3     1  UNL1       -0.3219
     18 C         138.2182  140.7335  164.7227 C.3     1  UNL1        0.0173
     19 C         138.8409  142.0669  165.0131 C.3     1  UNL1        0.0173
     20 H         136.3816  142.0444  162.4274 H       1  UNL1        0.1188
     21 H         136.0278  140.9120  163.5966 H       1  UNL1        0.1188
     22 N         143.1491  138.3957  158.9324 N.pl3   1  UNL1       -0.2825
     23 H         143.4024  137.8876  159.7366 H       1  UNL1        0.1551
     24 C         142.5499  134.0575  155.8919 C.ar    1  UNL1        0.1554
     25 N         141.8503  133.9166  154.5726 N.ar    1  UNL1       -0.1646
     26 N         141.3003  135.2598  154.1940 N.ar    1  UNL1       -0.2487
     27 C         140.5264  135.5764  152.9486 C.3     1  UNL1        0.1537
     28 C         141.6600  136.2307  155.2793 C.ar    1  UNL1        0.0796
     29 C         141.3840  137.6955  155.4475 C.ar    1  UNL1        0.0201
     30 C         141.8804  138.4171  156.6652 C.ar    1  UNL1        0.0162
     31 C         142.6527  137.6740  157.7146 C.ar    1  UNL1        0.0506
     32 C         142.9287  136.2093  157.5464 C.ar    1  UNL1        0.0179
     33 C         142.4323  135.4876  156.3287 C.ar    1  UNL1        0.0423
     34 C         145.3629  132.0421  157.8351 C.3     1  UNL1        0.1110
     35 N         144.6677  133.1389  157.0843 N.am    1  UNL1       -0.2979
     36 C         143.2452  132.9607  156.6428 C.2     1  UNL1        0.2654
     37 O         142.5181  131.6858  156.9521 O.2     1  UNL1       -0.2684
     38 H         145.1450  133.9756  156.8813 H       1  UNL1        0.1498
@<TRIPOS>BOND
     1    34    35    1
     2    35    36   am
     3    36    37    2
     4    36    24    1
     5    24    25   ar
     6    25    26   ar
     7    26    27    1
     8    26    28   ar
     9    28    29   ar
    10    29    30   ar
    11    30    31   ar
    12    31    22    1
    13    22     1    1
    14     1     2   ar
    15     2     3   ar
    16     3     4   ar
    17     4     5   ar
    18     5     7    1
    19     7     8   ar
    20     8     9   ar
    21     9    13    1
    22    13    15    1
    23    15    16    1
    24    16    17    1
    25    16    18    1
    26    18    19    1
    27     9    10   ar
    28    10    11    1
    29    10    12   ar
    30     5     6   ar
    31    31    32   ar
    32    32    33   ar
    33    33    24   ar
    34    33    28   ar
    35     6     1   ar
    36    12     7   ar
    37    19    16    1
    38    35    38    1
    39    22    23    1
    40    13    14    1
    41    17    20    1
    42    17    21    1
@<TRIPOS>MOLECULE
*****
 38 42 0 0 0
SMALL
GASTEIGER

@<TRIPOS>ATOM
      1 C         138.5012  141.0223  157.2387 C.ar    1  UNL1        0.2221
      2 N         139.1746  142.1768  156.5579 N.ar    1  UNL1       -0.2119
      3 C         139.5473  143.3981  157.3452 C.ar    1  UNL1        0.1050
      4 C         139.2465  143.4647  158.8132 C.ar    1  UNL1        0.0596
      5 C         138.5731  142.3102  159.4939 C.ar    1  UNL1        0.1683
      6 N         138.2004  141.0890  158.7068 N.ar    1  UNL1       -0.1944
      7 N         138.2723  142.3768  160.9619 N.ar    1  UNL1       -0.2096
      8 C         138.0086  141.2062  161.8620 C.ar    1  UNL1        0.1175
      9 C         137.7557  141.7317  163.2440 C.ar    1  UNL1        0.0796
     10 C         137.8632  143.2272  163.1980 C.ar    1  UNL1        0.0939
     11 C         137.6830  144.1601  164.3587 C.3     1  UNL1        0.0553
     12 N         138.1824  143.6259  161.7877 N.ar    1  UNL1       -0.1668
     13 N         137.4492  140.9066  164.4586 N.pl3   1  UNL1       -0.3294
     14 H         136.5177  140.7992  164.7584 H       1  UNL1        0.1469
     15 C         138.5621  140.2453  165.2164 C.3     1  UNL1        0.1014
     16 C         138.4977  138.7765  165.5137 C.3     1  UNL1        0.0572
     17 N         137.5644  138.7890  166.6878 N.3     1  UNL1       -0.3219
     18 C         138.7576  137.3033  165.4031 C.3     1  UNL1        0.0173
     19 C         139.4088  138.2538  164.4427 C.3     1  UNL1        0.0173
     20 H         137.2892  139.7494  166.8932 H       1  UNL1        0.1188
     21 H         138.0343  138.3889  167.4999 H       1  UNL1        0.1188
     22 N         138.1285  139.8011  156.4515 N.pl3   1  UNL1       -0.2825
     23 H         137.2370  139.7343  156.0391 H       1  UNL1        0.1551
     24 C         142.5159  137.0997  157.8216 C.ar    1  UNL1        0.1554
     25 N         143.0968  135.8630  157.2027 N.ar    1  UNL1       -0.1646
     26 N         142.2126  135.4568  156.0611 N.ar    1  UNL1       -0.2487
     27 C         142.4194  134.2728  155.1636 C.3     1  UNL1        0.1537
     28 C         141.0852  136.4425  155.9745 C.ar    1  UNL1        0.0796
     29 C         139.9123  136.5467  155.0454 C.ar    1  UNL1        0.0201
     30 C         138.9267  137.6662  155.2044 C.ar    1  UNL1        0.0162
     31 C         139.1141  138.6815  156.2925 C.ar    1  UNL1        0.0506
     32 C         140.2871  138.5774  157.2216 C.ar    1  UNL1        0.0179
     33 C         141.2727  137.4579  157.0625 C.ar    1  UNL1        0.0423
     34 C         143.5833  137.9917  161.5385 C.3     1  UNL1        0.1110
     35 N         143.0200  137.2444  160.3663 N.am    1  UNL1       -0.2979
     36 C         143.0792  137.8470  158.9938 C.2     1  UNL1        0.2654
     37 O         143.7018  139.1969  158.7938 O.2     1  UNL1       -0.2684
     38 H         142.6114  136.3584  160.4976 H       1  UNL1        0.1498
@<TRIPOS>BOND
     1    34    35    1
     2    35    36   am
     3    36    37    2
     4    36    24    1
     5    24    25   ar
     6    25    26   ar
     7    26    27    1
     8    26    28   ar
     9    28    29   ar
    10    29    30   ar
    11    30    31   ar
    12    31    22    1
    13    22     1    1
    14     1     2   ar
    15     2     3   ar
    16     3     4   ar
    17     4     5   ar
    18     5     7    1
    19     7     8   ar
    20     8     9   ar
    21     9    13    1
    22    13    15    1
    23    15    16    1
    24    16    17    1
    25    16    18    1
    26    18    19    1
    27     9    10   ar
    28    10    11    1
    29    10    12   ar
    30     5     6   ar
    31    31    32   ar
    32    32    33   ar
    33    33    24   ar
    34    33    28   ar
    35     6     1   ar
    36    12     7   ar
    37    19    16    1
    38    35    38    1
    39    22    23    1
    40    13    14    1
    41    17    20    1
    42    17    21    1
@<TRIPOS>MOLECULE
*****
 38 42 0 0 0
SMALL
GASTEIGER

@<TRIPOS>ATOM
      1 C         141.2752  144.9589  161.2392 C.ar    1  UNL1        0.2221
      2 N         140.3299  145.7039  162.1344 N.ar    1  UNL1       -0.2119
      3 C         140.0167  145.1731  163.5021 C.ar    1  UNL1        0.1050
      4 C         140.6488  143.8974  163.9743 C.ar    1  UNL1        0.0596
      5 C         141.5941  143.1525  163.0791 C.ar    1  UNL1        0.1683
      6 N         141.9072  143.6832  161.7115 N.ar    1  UNL1       -0.1944
      7 N         142.2261  141.8768  163.5513 N.ar    1  UNL1       -0.2096
      8 C         141.4972  140.6509  164.0161 C.ar    1  UNL1        0.1175
      9 C         142.5187  139.6195  164.3938 C.ar    1  UNL1        0.0796
     10 C         143.8790  140.2079  164.1625 C.ar    1  UNL1        0.0939
     11 C         145.1899  139.5217  164.4086 C.3     1  UNL1        0.0553
     12 N         143.6981  141.6030  163.6419 N.ar    1  UNL1       -0.1668
     13 N         142.2306  138.2416  164.9118 N.pl3   1  UNL1       -0.3294
     14 H         142.9584  137.6941  165.2856 H       1  UNL1        0.1469
     15 C         140.8335  137.6979  164.8603 C.3     1  UNL1        0.1014
     16 C         140.1156  137.5979  163.5470 C.3     1  UNL1        0.0572
     17 N         141.1833  136.9516  162.7150 N.3     1  UNL1       -0.3219
     18 C         139.0268  137.7223  162.5228 C.3     1  UNL1        0.0173
     19 C         138.7985  138.2095  163.9230 C.3     1  UNL1        0.0173
     20 H         142.0134  136.7971  163.2873 H       1  UNL1        0.1188
     21 H         141.4190  137.5606  161.9315 H       1  UNL1        0.1188
     22 N         141.5883  145.4896  159.8716 N.pl3   1  UNL1       -0.2825
     23 H         142.3474  146.1033  159.7437 H       1  UNL1        0.1551
     24 C         138.8282  146.5071  155.4252 C.ar    1  UNL1        0.1554
     25 N         138.0798  145.5566  154.5384 N.ar    1  UNL1       -0.1646
     26 N         138.2220  144.1780  155.1122 N.ar    1  UNL1       -0.2487
     27 C         137.6316  142.9214  154.5443 C.3     1  UNL1        0.1537
     28 C         139.0582  144.2764  156.3536 C.ar    1  UNL1        0.0796
     29 C         139.5269  143.2413  157.3328 C.ar    1  UNL1        0.0201
     30 C         140.3702  143.6457  158.5054 C.ar    1  UNL1        0.0162
     31 C         140.7449  145.0852  158.6989 C.ar    1  UNL1        0.0506
     32 C         140.2763  146.1203  157.7197 C.ar    1  UNL1        0.0179
     33 C         139.4329  145.7159  156.5471 C.ar    1  UNL1        0.0423
     34 C         138.5891  150.4128  156.0874 C.3     1  UNL1        0.1110
     35 N         138.4668  148.9312  156.2873 N.am    1  UNL1       -0.2979
     36 C         138.9505  147.9887  155.2253 C.2     1  UNL1        0.2654
     37 O         139.5564  148.5278  153.9636 O.2     1  UNL1       -0.2684
     38 H         138.0691  148.5774  157.1155 H       1  UNL1        0.1498
@<TRIPOS>BOND
     1    34    35    1
     2    35    36   am
     3    36    37    2
     4    36    24    1
     5    24    25   ar
     6    25    26   ar
     7    26    27    1
     8    26    28   ar
     9    28    29   ar
    10    29    30   ar
    11    30    31   ar
    12    31    22    1
    13    22     1    1
    14     1     2   ar
    15     2     3   ar
    16     3     4   ar
    17     4     5   ar
    18     5     7    1
    19     7     8   ar
    20     8     9   ar
    21     9    13    1
    22    13    15    1
    23    15    16    1
    24    16    17    1
    25    16    18    1
    26    18    19    1
    27     9    10   ar
    28    10    11    1
    29    10    12   ar
    30     5     6   ar
    31    31    32   ar
    32    32    33   ar
    33    33    24   ar
    34    33    28   ar
    35     6     1   ar
    36    12     7   ar
    37    19    16    1
    38    35    38    1
    39    22    23    1
    40    13    14    1
    41    17    20    1
    42    17    21    1
@<TRIPOS>MOLECULE
*****
 38 42 0 0 0
SMALL
GASTEIGER

@<TRIPOS>ATOM
      1 C         138.3143  139.8274  160.8182 C.ar    1  UNL1        0.2221
      2 N         137.4637  139.9049  159.5850 N.ar    1  UNL1       -0.2119
      3 C         138.0221  140.4965  158.3248 C.ar    1  UNL1        0.1050
      4 C         139.4310  141.0106  158.2976 C.ar    1  UNL1        0.0596
      5 C         140.2815  140.9331  159.5308 C.ar    1  UNL1        0.1683
      6 N         139.7232  140.3415  160.7910 N.ar    1  UNL1       -0.1944
      7 N         141.6904  141.4473  159.5036 N.ar    1  UNL1       -0.2096
      8 C         142.4574  141.9796  160.6776 C.ar    1  UNL1        0.1175
      9 C         143.8207  142.3806  160.1973 C.ar    1  UNL1        0.0796
     10 C         143.8961  142.0962  158.7264 C.ar    1  UNL1        0.0939
     11 C         145.0803  142.3449  157.8399 C.3     1  UNL1        0.0553
     12 N         142.5795  141.5193  158.2977 N.ar    1  UNL1       -0.1668
     13 N         144.9161  142.9637  161.0399 N.pl3   1  UNL1       -0.3294
     14 H         145.7990  143.1444  160.6434 H       1  UNL1        0.1469
     15 C         144.6665  143.2716  162.4866 C.3     1  UNL1        0.1014
     16 C         144.8419  142.2009  163.5224 C.3     1  UNL1        0.0572
     17 N         146.2387  141.7567  163.2039 N.3     1  UNL1       -0.3219
     18 C         144.5321  141.2844  164.6687 C.3     1  UNL1        0.0173
     19 C         143.5059  142.2732  164.2006 C.3     1  UNL1        0.0173
     20 H         146.5991  142.3028  162.4214 H       1  UNL1        0.1188
     21 H         146.2323  140.7678  162.9540 H       1  UNL1        0.1188
     22 N         137.7560  139.2358  162.0784 N.pl3   1  UNL1       -0.2825
     23 H         137.0048  138.6010  162.0335 H       1  UNL1        0.1551
     24 C         139.7448  142.7294  165.5803 C.ar    1  UNL1        0.1554
     25 N         140.2471  142.4902  166.9733 N.ar    1  UNL1       -0.1646
     26 N         140.1048  141.0273  167.2725 N.ar    1  UNL1       -0.2487
     27 C         140.4859  140.3484  168.5546 C.3     1  UNL1        0.1537
     28 C         139.5145  140.3623  166.0644 C.ar    1  UNL1        0.0796
     29 C         139.1509  138.9348  165.7816 C.ar    1  UNL1        0.0201
     30 C         138.5647  138.5593  164.4530 C.ar    1  UNL1        0.0162
     31 C         138.3422  139.6113  163.4071 C.ar    1  UNL1        0.0506
     32 C         138.7058  141.0388  163.6899 C.ar    1  UNL1        0.0179
     33 C         139.2920  141.4143  165.0186 C.ar    1  UNL1        0.0423
     34 C         140.5483  145.6198  162.9822 C.3     1  UNL1        0.1110
     35 N         140.5905  144.2977  163.6893 N.am    1  UNL1       -0.2979
     36 C         139.7026  144.0516  164.8731 C.2     1  UNL1        0.2654
     37 O         138.7726  145.1276  165.3496 O.2     1  UNL1       -0.2684
     38 H         141.2009  143.5914  163.3766 H       1  UNL1        0.1498
@<TRIPOS>BOND
     1    34    35    1
     2    35    36   am
     3    36    37    2
     4    36    24    1
     5    24    25   ar
     6    25    26   ar
     7    26    27    1
     8    26    28   ar
     9    28    29   ar
    10    29    30   ar
    11    30    31   ar
    12    31    22    1
    13    22     1    1
    14     1     2   ar
    15     2     3   ar
    16     3     4   ar
    17     4     5   ar
    18     5     7    1
    19     7     8   ar
    20     8     9   ar
    21     9    13    1
    22    13    15    1
    23    15    16    1
    24    16    17    1
    25    16    18    1
    26    18    19    1
    27     9    10   ar
    28    10    11    1
    29    10    12   ar
    30     5     6   ar
    31    31    32   ar
    32    32    33   ar
    33    33    24   ar
    34    33    28   ar
    35     6     1   ar
    36    12     7   ar
    37    19    16    1
    38    35    38    1
    39    22    23    1
    40    13    14    1
    41    17    20    1
    42    17    21    1
