@<TRIPOS>MOLECULE
*****
 24 26 0 0 0
SMALL
GASTEIGER

@<TRIPOS>ATOM
      1 C         138.5662  139.3949  165.4460 C.ar    1  UNL1        0.2007
      2 N         137.6416  138.5367  166.2576 N.ar    1  UNL1       -0.0584
      3 O         137.9640  138.7499  167.7070 O.2     1  UNL1       -0.3310
      4 C         139.0877  139.7398  167.7912 C.ar    1  UNL1        0.2793
      5 N         139.4599  140.1385  166.3939 N.ar    1  UNL1       -0.1880
      6 C         139.7270  140.2428  169.0515 C.2     1  UNL1        0.1598
      7 N         139.2061  140.0450  170.4441 N.2     1  UNL1       -0.1434
      8 N         140.1566  140.7119  171.3936 N.2     1  UNL1       -0.1519
      9 C         141.2650  141.3219  170.5879 C.2     1  UNL1        0.0865
     10 C         142.4818  142.1039  170.9853 C.3     1  UNL1        0.0736
     11 C         143.4330  142.5961  169.9351 C.2     1  UNL1       -0.0197
     12 C         143.1675  142.3062  168.4875 C.2     1  UNL1       -0.0041
     13 C         141.9508  141.5242  168.0901 C.2     1  UNL1        0.0026
     14 C         140.9995  141.0321  169.1403 C.2     1  UNL1        0.0397
     15 C         138.5924  139.4924  163.9495 C.3     1  UNL1        0.1621
     16 C         138.3423  141.8039  162.7900 C.2     1  UNL1        0.4017
     17 O         136.8536  141.7264  162.9566 O.2     1  UNL1       -0.2264
     18 N         139.2117  140.6869  163.2864 N.am    1  UNL1       -0.2634
     19 H         140.1888  140.7377  163.1771 H       1  UNL1        0.1532
     20 O         138.9616  142.9984  162.1270 O.3     1  UNL1       -0.4419
     21 C         138.6868  144.4134  163.6834 C.3     1  UNL1        0.0437
     22 C         139.8661  143.9050  162.9081 C.3     1  UNL1        0.1378
     23 C         141.0452  143.3966  162.1327 C.3     1  UNL1        0.0437
     24 C         140.7705  144.8115  163.6891 C.3     1  UNL1        0.0437
@<TRIPOS>BOND
     1    21    22    1
     2    22    23    1
     3    22    24    1
     4    22    20    1
     5    20    16    1
     6    16    17    2
     7    16    18   am
     8    18    15    1
     9    15     1    1
    10     1     2   ar
    11     2     3   ar
    12     3     4   ar
    13     4     6    1
    14     6     7    2
    15     7     8    1
    16     8     9    2
    17     9    10    1
    18    10    11    1
    19    11    12    2
    20    12    13    1
    21    13    14    2
    22     4     5   ar
    23     5     1   ar
    24    14     6    1
    25    14     9    1
    26    18    19    1
@<TRIPOS>MOLECULE
*****
 24 26 0 0 0
SMALL
GASTEIGER

@<TRIPOS>ATOM
      1 C         138.5727  138.9733  165.7169 C.ar    1  UNL1        0.2007
      2 N         137.5320  138.3618  166.6074 N.ar    1  UNL1       -0.0584
      3 O         137.8466  138.7490  168.0220 O.2     1  UNL1       -0.3310
      4 C         139.0818  139.5999  168.0058 C.ar    1  UNL1        0.2793
      5 N         139.5305  139.7385  166.5813 N.ar    1  UNL1       -0.1880
      6 C         139.7507  140.2058  169.2039 C.2     1  UNL1        0.1598
      7 N         139.2744  140.1084  170.6229 N.2     1  UNL1       -0.1434
      8 N         140.2428  140.8579  171.4893 N.2     1  UNL1       -0.1519
      9 C         141.3175  141.4184  170.6057 C.2     1  UNL1        0.0865
     10 C         142.5338  142.2438  170.9049 C.3     1  UNL1        0.0736
     11 C         143.4459  142.6661  169.7915 C.2     1  UNL1       -0.0197
     12 C         143.1418  142.2630  168.3791 C.2     1  UNL1       -0.0041
     13 C         141.9256  141.4377  168.0799 C.2     1  UNL1        0.0026
     14 C         141.0134  141.0154  169.1933 C.2     1  UNL1        0.0397
     15 C         138.6433  138.8427  164.2244 C.3     1  UNL1        0.1621
     16 C         141.1007  138.8562  163.3813 C.2     1  UNL1        0.4017
     17 O         141.3400  137.5388  164.0575 O.2     1  UNL1       -0.2264
     18 N         139.7524  139.5082  163.4648 N.am    1  UNL1       -0.2634
     19 H         139.5954  140.3728  163.0210 H       1  UNL1        0.1532
     20 O         142.2098  139.5217  162.6217 O.3     1  UNL1       -0.4419
     21 C         144.1316  138.7071  162.2429 C.3     1  UNL1        0.0437
     22 C         143.5655  139.6669  163.2472 C.3     1  UNL1        0.1378
     23 C         142.9994  140.6266  164.2514 C.3     1  UNL1        0.0437
     24 C         144.9211  139.8120  163.8725 C.3     1  UNL1        0.0437
@<TRIPOS>BOND
     1    21    22    1
     2    22    23    1
     3    22    24    1
     4    22    20    1
     5    20    16    1
     6    16    17    2
     7    16    18   am
     8    18    15    1
     9    15     1    1
    10     1     2   ar
    11     2     3   ar
    12     3     4   ar
    13     4     6    1
    14     6     7    2
    15     7     8    1
    16     8     9    2
    17     9    10    1
    18    10    11    1
    19    11    12    2
    20    12    13    1
    21    13    14    2
    22     4     5   ar
    23     5     1   ar
    24    14     6    1
    25    14     9    1
    26    18    19    1
@<TRIPOS>MOLECULE
*****
 24 26 0 0 0
SMALL
GASTEIGER

@<TRIPOS>ATOM
      1 C         139.9108  139.7033  164.2951 C.ar    1  UNL1        0.2007
      2 N         138.9549  138.6288  164.7213 N.ar    1  UNL1       -0.0584
      3 O         138.8220  138.6921  166.2141 O.2     1  UNL1       -0.3310
      4 C         139.6958  139.8057  166.7105 C.ar    1  UNL1        0.2793
      5 N         140.3686  140.4306  165.5245 N.ar    1  UNL1       -0.1880
      6 C         139.8666  140.2213  168.1416 C.2     1  UNL1        0.1598
      7 N         138.9318  139.9014  169.2702 N.2     1  UNL1       -0.1434
      8 N         139.4897  140.5122  170.5214 N.2     1  UNL1       -0.1519
      9 C         140.7693  141.2096  170.1662 C.2     1  UNL1        0.0865
     10 C         141.7525  141.9850  170.9919 C.3     1  UNL1        0.0736
     11 C         142.9686  142.5807  170.3469 C.2     1  UNL1       -0.0197
     12 C         143.2015  142.4010  168.8760 C.2     1  UNL1       -0.0041
     13 C         142.2184  141.6255  168.0502 C.2     1  UNL1        0.0026
     14 C         141.0023  141.0298  168.6953 C.2     1  UNL1        0.0397
     15 C         140.3344  139.9987  162.8869 C.3     1  UNL1        0.1621
     16 C         142.8137  139.3021  162.5433 C.2     1  UNL1        0.4017
     17 O         142.4447  137.8687  162.7859 O.2     1  UNL1       -0.2264
     18 N         141.7586  140.3671  162.5937 N.am    1  UNL1       -0.2634
     19 H         142.0008  141.3080  162.4344 H       1  UNL1        0.1532
     20 O         144.2379  139.6706  162.2501 O.3     1  UNL1       -0.4419
     21 C         145.0032  139.7028  164.2283 C.3     1  UNL1        0.0437
     22 C         144.9394  140.6887  163.0996 C.3     1  UNL1        0.1378
     23 C         144.8755  141.6745  161.9708 C.3     1  UNL1        0.0437
     24 C         145.6408  141.7066  163.9490 C.3     1  UNL1        0.0437
@<TRIPOS>BOND
     1    21    22    1
     2    22    23    1
     3    22    24    1
     4    22    20    1
     5    20    16    1
     6    16    17    2
     7    16    18   am
     8    18    15    1
     9    15     1    1
    10     1     2   ar
    11     2     3   ar
    12     3     4   ar
    13     4     6    1
    14     6     7    2
    15     7     8    1
    16     8     9    2
    17     9    10    1
    18    10    11    1
    19    11    12    2
    20    12    13    1
    21    13    14    2
    22     4     5   ar
    23     5     1   ar
    24    14     6    1
    25    14     9    1
    26    18    19    1
@<TRIPOS>MOLECULE
*****
 24 26 0 0 0
SMALL
GASTEIGER

@<TRIPOS>ATOM
      1 C         138.3765  139.0266  163.0815 C.ar    1  UNL1        0.2007
      2 N         138.8306  137.6515  163.4729 N.ar    1  UNL1       -0.0584
      3 O         139.0527  137.6414  164.9564 O.2     1  UNL1       -0.3310
      4 C         138.7360  139.0103  165.4818 C.ar    1  UNL1        0.2793
      5 N         138.3181  139.8662  164.3231 N.ar    1  UNL1       -0.1880
      6 C         138.8221  139.4464  166.9144 C.2     1  UNL1        0.1598
      7 N         138.0197  138.8926  168.0543 N.2     1  UNL1       -0.1434
      8 N         138.4274  139.6169  169.3030 N.2     1  UNL1       -0.1519
      9 C         139.4817  140.6183  168.9348 C.2     1  UNL1        0.0865
     10 C         140.2511  141.6125  169.7530 C.3     1  UNL1        0.0736
     11 C         141.2644  142.5014  169.0949 C.2     1  UNL1       -0.0197
     12 C         141.5083  142.3960  167.6187 C.2     1  UNL1       -0.0041
     13 C         140.7389  141.4018  166.8004 C.2     1  UNL1        0.0026
     14 C         139.7256  140.5130  167.4585 C.2     1  UNL1        0.0397
     15 C         138.0401  139.4819  161.6925 C.3     1  UNL1        0.1621
     16 C         138.8579  141.9209  161.3291 C.2     1  UNL1        0.4017
     17 O         140.2788  141.4687  161.4916 O.2     1  UNL1       -0.2264
     18 N         137.7385  140.9275  161.4295 N.am    1  UNL1       -0.2634
     19 H         136.8059  141.2243  161.3228 H       1  UNL1        0.1532
     20 O         138.5564  143.3666  161.0661 O.3     1  UNL1       -0.4419
     21 C         138.4327  144.1481  163.0344 C.3     1  UNL1        0.0437
     22 C         139.2804  144.4350  161.8305 C.3     1  UNL1        0.1378
     23 C         140.1281  144.7218  160.6267 C.3     1  UNL1        0.0437
     24 C         140.0044  145.5033  162.5949 C.3     1  UNL1        0.0437
@<TRIPOS>BOND
     1    21    22    1
     2    22    23    1
     3    22    24    1
     4    22    20    1
     5    20    16    1
     6    16    17    2
     7    16    18   am
     8    18    15    1
     9    15     1    1
    10     1     2   ar
    11     2     3   ar
    12     3     4   ar
    13     4     6    1
    14     6     7    2
    15     7     8    1
    16     8     9    2
    17     9    10    1
    18    10    11    1
    19    11    12    2
    20    12    13    1
    21    13    14    2
    22     4     5   ar
    23     5     1   ar
    24    14     6    1
    25    14     9    1
    26    18    19    1
@<TRIPOS>MOLECULE
*****
 24 26 0 0 0
SMALL
GASTEIGER

@<TRIPOS>ATOM
      1 C         138.9913  138.8709  162.6434 C.ar    1  UNL1        0.2007
      2 N         139.5239  137.4833  162.4404 N.ar    1  UNL1       -0.0584
      3 O         140.5824  137.2371  163.4743 O.2     1  UNL1       -0.3310
      4 C         140.7040  138.4725  164.3164 C.ar    1  UNL1        0.2793
      5 N         139.7208  139.4821  163.8029 N.ar    1  UNL1       -0.1880
      6 C         141.6440  138.6644  165.4695 C.2     1  UNL1        0.1598
      7 N         143.0812  138.2374  165.5159 N.2     1  UNL1       -0.1434
      8 N         143.6371  138.6261  166.8538 N.2     1  UNL1       -0.1519
      9 C         142.5436  139.2933  167.6341 C.2     1  UNL1        0.0865
     10 C         142.5104  139.8823  169.0132 C.3     1  UNL1        0.0736
     11 C         141.2453  140.4951  169.5367 C.2     1  UNL1       -0.0197
     12 C         140.0134  140.5187  168.6812 C.2     1  UNL1       -0.0041
     13 C         140.0467  139.9297  167.3021 C.2     1  UNL1        0.0026
     14 C         141.3117  139.3169  166.7786 C.2     1  UNL1        0.0397
     15 C         137.9180  139.5311  161.8300 C.3     1  UNL1        0.1621
     16 C         138.2198  142.1089  161.9493 C.2     1  UNL1        0.4017
     17 O         139.5550  141.9837  161.2773 O.2     1  UNL1       -0.2264
     18 N         137.4013  140.8826  162.2257 N.am    1  UNL1       -0.2634
     19 H         136.5250  140.9648  162.6668 H       1  UNL1        0.1532
     20 O         137.7032  143.4603  162.3450 O.3     1  UNL1       -0.4419
     21 C         138.9881  145.1338  162.5655 C.3     1  UNL1        0.0437
     22 C         138.3114  144.1845  163.5094 C.3     1  UNL1        0.1378
     23 C         137.6347  143.2351  164.4532 C.3     1  UNL1        0.0437
     24 C         138.9196  144.9085  164.6737 C.3     1  UNL1        0.0437
@<TRIPOS>BOND
     1    21    22    1
     2    22    23    1
     3    22    24    1
     4    22    20    1
     5    20    16    1
     6    16    17    2
     7    16    18   am
     8    18    15    1
     9    15     1    1
    10     1     2   ar
    11     2     3   ar
    12     3     4   ar
    13     4     6    1
    14     6     7    2
    15     7     8    1
    16     8     9    2
    17     9    10    1
    18    10    11    1
    19    11    12    2
    20    12    13    1
    21    13    14    2
    22     4     5   ar
    23     5     1   ar
    24    14     6    1
    25    14     9    1
    26    18    19    1
@<TRIPOS>MOLECULE
*****
 24 26 0 0 0
SMALL
GASTEIGER

@<TRIPOS>ATOM
      1 C         139.8143  144.6288  162.5215 C.ar    1  UNL1        0.2007
      2 N         138.3689  144.8926  162.2195 N.ar    1  UNL1       -0.0584
      3 O         137.6742  143.5699  162.0862 O.2     1  UNL1       -0.3310
      4 C         138.6902  142.4885  162.3058 C.ar    1  UNL1        0.2793
      5 N         140.0128  143.1429  162.5749 N.ar    1  UNL1       -0.1880
      6 C         138.4293  141.0119  162.2638 C.2     1  UNL1        0.1598
      7 N         137.5775  140.2954  161.2583 N.2     1  UNL1       -0.1434
      8 N         137.5963  138.8333  161.5930 N.2     1  UNL1       -0.1519
      9 C         138.4597  138.6463  162.8053 C.2     1  UNL1        0.0865
     10 C         138.8435  137.4239  163.5852 C.3     1  UNL1        0.0736
     11 C         139.7422  137.5479  164.7797 C.2     1  UNL1       -0.0197
     12 C         140.2571  138.8944  165.1943 C.2     1  UNL1       -0.0041
     13 C         139.8732  140.1168  164.4144 C.2     1  UNL1        0.0026
     14 C         138.9745  139.9928  163.2199 C.2     1  UNL1        0.0397
     15 C         140.8748  145.6681  162.7330 C.3     1  UNL1        0.1621
     16 C         143.1997  144.5473  162.4350 C.2     1  UNL1        0.4017
     17 O         142.8563  144.2129  161.0137 O.2     1  UNL1       -0.2264
     18 N         142.2089  145.2749  163.2947 N.am    1  UNL1       -0.2634
     19 H         142.4343  145.4944  164.2276 H       1  UNL1        0.1532
     20 O         144.5338  144.1540  162.9967 O.3     1  UNL1       -0.4419
     21 C         144.4304  143.4056  164.9789 C.3     1  UNL1        0.0437
     22 C         144.7125  142.8073  163.6326 C.3     1  UNL1        0.1378
     23 C         144.9945  142.2091  162.2863 C.3     1  UNL1        0.0437
     24 C         144.8912  141.4606  164.2684 C.3     1  UNL1        0.0437
@<TRIPOS>BOND
     1    21    22    1
     2    22    23    1
     3    22    24    1
     4    22    20    1
     5    20    16    1
     6    16    17    2
     7    16    18   am
     8    18    15    1
     9    15     1    1
    10     1     2   ar
    11     2     3   ar
    12     3     4   ar
    13     4     6    1
    14     6     7    2
    15     7     8    1
    16     8     9    2
    17     9    10    1
    18    10    11    1
    19    11    12    2
    20    12    13    1
    21    13    14    2
    22     4     5   ar
    23     5     1   ar
    24    14     6    1
    25    14     9    1
    26    18    19    1
@<TRIPOS>MOLECULE
*****
 24 26 0 0 0
SMALL
GASTEIGER

@<TRIPOS>ATOM
      1 C         144.2634  142.1063  162.6519 C.ar    1  UNL1        0.2007
      2 N         145.3133  141.1593  163.1529 N.ar    1  UNL1       -0.0584
      3 O         144.6381  139.8717  163.5221 O.2     1  UNL1       -0.3310
      4 C         143.1709  140.0230  163.2493 C.ar    1  UNL1        0.2793
      5 N         142.9394  141.4039  162.7115 N.ar    1  UNL1       -0.1880
      6 C         142.1198  138.9768  163.4747 C.2     1  UNL1        0.1598
      7 N         142.0354  137.6484  162.7831 N.2     1  UNL1       -0.1434
      8 N         140.8320  136.9261  163.3123 N.2     1  UNL1       -0.1519
      9 C         140.1727  137.8080  164.3309 C.2     1  UNL1        0.0865
     10 C         138.9504  137.6207  165.1799 C.3     1  UNL1        0.0736
     11 C         138.5241  138.7008  166.1294 C.2     1  UNL1       -0.0197
     12 C         139.3200  139.9683  166.2297 C.2     1  UNL1       -0.0041
     13 C         140.5423  140.1556  165.3807 C.2     1  UNL1        0.0026
     14 C         140.9686  139.0754  164.4312 C.2     1  UNL1        0.0397
     15 C         144.4967  143.5092  162.1751 C.3     1  UNL1        0.1621
     16 C         142.5893  144.8433  163.3294 C.2     1  UNL1        0.4017
     17 O         142.9744  144.2496  164.6520 O.2     1  UNL1       -0.2264
     18 N         143.3504  144.4730  162.0909 N.am    1  UNL1       -0.2634
     19 H         143.0977  144.8627  161.2229 H       1  UNL1        0.1532
     20 O         141.4431  145.8071  163.2452 O.3     1  UNL1       -0.4419
     21 C         139.9702  144.6993  164.2956 C.3     1  UNL1        0.0437
     22 C         140.0648  145.3076  162.9277 C.3     1  UNL1        0.1378
     23 C         140.1594  145.9159  161.5599 C.3     1  UNL1        0.0437
     24 C         138.6865  144.8081  162.6103 C.3     1  UNL1        0.0437
@<TRIPOS>BOND
     1    21    22    1
     2    22    23    1
     3    22    24    1
     4    22    20    1
     5    20    16    1
     6    16    17    2
     7    16    18   am
     8    18    15    1
     9    15     1    1
    10     1     2   ar
    11     2     3   ar
    12     3     4   ar
    13     4     6    1
    14     6     7    2
    15     7     8    1
    16     8     9    2
    17     9    10    1
    18    10    11    1
    19    11    12    2
    20    12    13    1
    21    13    14    2
    22     4     5   ar
    23     5     1   ar
    24    14     6    1
    25    14     9    1
    26    18    19    1
@<TRIPOS>MOLECULE
*****
 24 26 0 0 0
SMALL
GASTEIGER

@<TRIPOS>ATOM
      1 C         143.4904  139.9395  163.5713 C.ar    1  UNL1        0.2007
      2 N         142.9118  138.5575  163.6450 N.ar    1  UNL1       -0.0584
      3 O         142.5245  138.2925  165.0697 O.2     1  UNL1       -0.3310
      4 C         142.8636  139.5108  165.8765 C.ar    1  UNL1        0.2793
      5 N         143.4605  140.5286  164.9505 N.ar    1  UNL1       -0.1880
      6 C         142.6443  139.6812  167.3506 C.2     1  UNL1        0.1598
      7 N         143.1494  138.7685  168.4284 N.2     1  UNL1       -0.1434
      8 N         142.6986  139.3174  169.7496 N.2     1  UNL1       -0.1519
      9 C         141.9148  140.5694  169.4882 C.2     1  UNL1        0.0865
     10 C         141.2274  141.5337  170.4088 C.3     1  UNL1        0.0736
     11 C         140.5064  142.7229  169.8466 C.2     1  UNL1       -0.0197
     12 C         140.4728  142.9477  168.3640 C.2     1  UNL1       -0.0041
     13 C         141.1602  141.9833  167.4434 C.2     1  UNL1        0.0026
     14 C         141.8812  140.7942  168.0055 C.2     1  UNL1        0.0397
     15 C         144.0078  140.6139  162.3355 C.3     1  UNL1        0.1621
     16 C         143.8419  143.2066  162.3580 C.2     1  UNL1        0.4017
     17 O         144.9586  143.2694  163.3575 O.2     1  UNL1       -0.2264
     18 N         143.3665  141.8788  161.8470 N.am    1  UNL1       -0.2634
     19 H         142.6336  141.8376  161.1909 H       1  UNL1        0.1532
     20 O         143.2006  144.4715  161.8694 O.3     1  UNL1       -0.4419
     21 C         142.1849  145.0053  163.6537 C.3     1  UNL1        0.0437
     22 C         141.7767  144.7777  162.2283 C.3     1  UNL1        0.1378
     23 C         141.3687  144.5502  160.8029 C.3     1  UNL1        0.0437
     24 C         140.3529  145.0839  162.5871 C.3     1  UNL1        0.0437
@<TRIPOS>BOND
     1    21    22    1
     2    22    23    1
     3    22    24    1
     4    22    20    1
     5    20    16    1
     6    16    17    2
     7    16    18   am
     8    18    15    1
     9    15     1    1
    10     1     2   ar
    11     2     3   ar
    12     3     4   ar
    13     4     6    1
    14     6     7    2
    15     7     8    1
    16     8     9    2
    17     9    10    1
    18    10    11    1
    19    11    12    2
    20    12    13    1
    21    13    14    2
    22     4     5   ar
    23     5     1   ar
    24    14     6    1
    25    14     9    1
    26    18    19    1
@<TRIPOS>MOLECULE
*****
 24 26 0 0 0
SMALL
GASTEIGER

@<TRIPOS>ATOM
      1 C         142.9785  140.5742  163.4133 C.ar    1  UNL1        0.2007
      2 N         144.0226  139.5045  163.5382 N.ar    1  UNL1       -0.0584
      3 O         144.0815  139.0797  164.9755 O.2     1  UNL1       -0.3310
      4 C         143.0737  139.8868  165.7391 C.ar    1  UNL1        0.2793
      5 N         142.3921  140.8104  164.7736 N.ar    1  UNL1       -0.1880
      6 C         142.7964  139.7876  167.2099 C.2     1  UNL1        0.1598
      7 N         143.2386  138.6783  168.1176 N.2     1  UNL1       -0.1434
      8 N         142.7436  138.9855  169.4999 N.2     1  UNL1       -0.1519
      9 C         141.9955  140.2845  169.4464 C.2     1  UNL1        0.0865
     10 C         141.2888  141.0800  170.5037 C.3     1  UNL1        0.0736
     11 C         140.6147  142.3712  170.1455 C.2     1  UNL1       -0.0197
     12 C         140.6474  142.8670  168.7302 C.2     1  UNL1       -0.0041
     13 C         141.3540  142.0715  167.6730 C.2     1  UNL1        0.0026
     14 C         142.0281  140.7802  168.0311 C.2     1  UNL1        0.0397
     15 C         142.5892  141.2832  162.1502 C.3     1  UNL1        0.1621
     16 C         140.3935  142.6246  162.5105 C.2     1  UNL1        0.4017
     17 O         139.6470  141.3428  162.7332 O.2     1  UNL1       -0.2264
     18 N         141.8646  142.5948  162.2190 N.am    1  UNL1       -0.2634
     19 H         142.3546  143.4361  162.0728 H       1  UNL1        0.1532
     20 O         139.6690  143.9362  162.5793 O.3     1  UNL1       -0.4419
     21 C         137.6717  144.2045  163.2420 C.3     1  UNL1        0.0437
     22 C         139.0269  144.3719  163.8630 C.3     1  UNL1        0.1378
     23 C         140.3820  144.5394  164.4839 C.3     1  UNL1        0.0437
     24 C         138.3848  144.8077  165.1466 C.3     1  UNL1        0.0437
@<TRIPOS>BOND
     1    21    22    1
     2    22    23    1
     3    22    24    1
     4    22    20    1
     5    20    16    1
     6    16    17    2
     7    16    18   am
     8    18    15    1
     9    15     1    1
    10     1     2   ar
    11     2     3   ar
    12     3     4   ar
    13     4     6    1
    14     6     7    2
    15     7     8    1
    16     8     9    2
    17     9    10    1
    18    10    11    1
    19    11    12    2
    20    12    13    1
    21    13    14    2
    22     4     5   ar
    23     5     1   ar
    24    14     6    1
    25    14     9    1
    26    18    19    1
