@<TRIPOS>MOLECULE
*****
 40 45 0 0 0
SMALL
GASTEIGER

@<TRIPOS>ATOM
      1 C         142.8081  135.8048  157.6866 C.ar    1  UNL1        0.2400
      2 N         142.2213  135.3512  156.3828 N.ar    1  UNL1       -0.2090
      3 C         141.4851  136.3258  155.5122 C.ar    1  UNL1        0.1021
      4 C         141.1541  137.8257  155.6471 C.ar    1  UNL1        0.0207
      5 C         141.9324  137.2814  156.8082 C.ar    1  UNL1        0.0221
      6 C         142.6586  137.2332  158.1197 C.ar    1  UNL1        0.1178
      7 N         143.2455  137.6868  159.4235 N.pl3   1  UNL1       -0.2104
      8 S         143.6220  138.5876  160.5622 S.O2    1  UNL1        0.0737
      9 O         144.3758  138.3704  161.8407 O.2     1  UNL1       -0.1499
     10 O         144.0983  137.1762  160.7386 O.2     1  UNL1       -0.1499
     11 C         143.7428  139.8269  161.3987 C.ar    1  UNL1        0.1253
     12 C         144.4691  139.7787  162.7102 C.ar    1  UNL1        0.0202
     13 C         144.5899  141.0180  163.5466 C.ar    1  UNL1        0.0015
     14 C         143.9845  142.3055  163.0714 C.ar    1  UNL1        0.0046
     15 C         143.2582  142.3537  161.7599 C.ar    1  UNL1        0.0547
     16 C         143.1374  141.1144  160.9235 C.ar    1  UNL1        0.0247
     17 C         142.5863  143.9878  161.3343 C.2     1  UNL1        0.2461
     18 O         142.9628  144.8886  162.4730 O.2     1  UNL1       -0.2701
     19 N         141.8500  144.9624  160.4636 N.am    1  UNL1       -0.2969
     20 C         141.0718  145.5067  159.3025 C.3     1  UNL1        0.1181
     21 C         140.3455  145.5548  157.9909 C.ar    1  UNL1        0.0166
     22 C         139.6239  146.6790  157.2212 C.ar    1  UNL1        0.0962
     23 N         138.8976  146.7272  155.9096 N.ar    1  UNL1       -0.2426
     24 C         138.7767  145.4879  155.0733 C.ar    1  UNL1        0.0988
     25 C         139.3822  144.2004  155.5484 C.ar    1  UNL1        0.0190
     26 C         139.7587  145.1012  156.6872 C.ar    1  UNL1        0.0005
     27 C         139.2614  142.9611  154.7121 C.ar    1  UNL1        0.0045
     28 C         138.5251  143.9358  153.8413 C.ar    1  UNL1        0.0207
     29 C         137.9383  143.4821  152.5376 C.ar    1  UNL1        0.0988
     30 N         138.0877  142.0538  152.1044 N.ar    1  UNL1       -0.2438
     31 C         138.8240  141.0791  152.9751 C.ar    1  UNL1        0.0813
     32 C         139.0829  139.4535  152.6455 C.ar    1  UNL1        0.0191
     33 C         139.8045  138.4218  153.4609 C.ar    1  UNL1        0.0016
     34 C         140.4179  138.8003  154.7764 C.ar    1  UNL1        0.0016
     35 C         139.8125  140.0878  154.3013 C.ar    1  UNL1        0.0015
     36 C         139.4108  141.5328  154.2789 C.ar    1  UNL1        0.0177
     37 H         143.6428  136.8418  159.7354 H       1  UNL1        0.1739
     38 H         141.9293  145.7758  161.0126 H       1  UNL1        0.1501
     39 C         144.1000  133.5682  157.9668 C.3     1  UNL1        0.2543
     40 O         143.5443  134.8302  158.5572 O.3     1  UNL1       -0.4553
@<TRIPOS>BOND
     1    39    40    1
     2    40     1    1
     3     1     2   ar
     4     2     3   ar
     5     3     4   ar
     6     4     5   ar
     7     5     6   ar
     8     6     7    1
     9     7     8    1
    10     8     9    2
    11     8    10    2
    12     8    11    1
    13    11    12   ar
    14    12    13   ar
    15    13    14   ar
    16    14    15   ar
    17    15    16   ar
    18    15    17    1
    19    17    18    2
    20    17    19   am
    21    19    20    1
    22    20    21    1
    23    21    22   ar
    24    22    23   ar
    25    23    24   ar
    26    24    25   ar
    27    25    26   ar
    28    25    27    1
    29    27    28   ar
    30    28    29   ar
    31    29    30   ar
    32    30    31   ar
    33    31    32   ar
    34    32    33   ar
    35    33    34   ar
    36    34    35   ar
    37    35    36   ar
    38     6     1   ar
    39    16    11   ar
    40    26    21   ar
    41    36    27   ar
    42    34     4    1
    43    36    31   ar
    44     7    37    1
    45    19    38    1
@<TRIPOS>MOLECULE
*****
 40 45 0 0 0
SMALL
GASTEIGER

@<TRIPOS>ATOM
      1 C         140.2183  145.6420  154.9280 C.ar    1  UNL1        0.2400
      2 N         139.8291  146.7721  155.8343 N.ar    1  UNL1       -0.2090
      3 C         139.8639  146.5862  157.3222 C.ar    1  UNL1        0.1021
      4 C         140.2394  145.3998  158.2325 C.ar    1  UNL1        0.0207
      5 C         140.3672  145.0914  156.7701 C.ar    1  UNL1        0.0221
      6 C         140.6424  144.3260  155.5097 C.ar    1  UNL1        0.1178
      7 N         141.0316  143.1959  154.6034 N.pl3   1  UNL1       -0.2104
      8 S         141.4880  141.8374  154.1605 S.O2    1  UNL1        0.0737
      9 O         141.7169  141.2166  152.8144 O.2     1  UNL1       -0.1499
     10 O         141.2009  142.7687  153.0202 O.2     1  UNL1       -0.1499
     11 C         141.9565  140.4143  154.2344 C.ar    1  UNL1        0.1253
     12 C         142.2316  139.6489  152.9741 C.ar    1  UNL1        0.0202
     13 C         142.7000  138.2259  153.0480 C.ar    1  UNL1        0.0015
     14 C         142.8934  137.5683  154.3822 C.ar    1  UNL1        0.0046
     15 C         142.6182  138.3336  155.6425 C.ar    1  UNL1        0.0547
     16 C         142.1498  139.7566  155.5686 C.ar    1  UNL1        0.0247
     17 C         142.9023  137.3906  157.1698 C.2     1  UNL1        0.2461
     18 O         143.3587  136.0321  156.7269 O.2     1  UNL1       -0.2701
     19 N         142.9371  137.2048  158.6579 N.am    1  UNL1       -0.2969
     20 C         142.8093  137.5131  160.1202 C.3     1  UNL1        0.1181
     21 C         142.5341  138.2785  161.3806 C.ar    1  UNL1        0.0166
     22 C         142.6255  137.9210  162.8775 C.ar    1  UNL1        0.0962
     23 N         142.3503  138.6865  164.1379 N.ar    1  UNL1       -0.2426
     24 C         141.8818  140.1095  164.0640 C.ar    1  UNL1        0.0988
     25 C         141.6885  140.7672  162.7298 C.ar    1  UNL1        0.0190
     26 C         142.1449  139.4086  162.2869 C.ar    1  UNL1        0.0005
     27 C         141.2201  142.1902  162.6559 C.ar    1  UNL1        0.0045
     28 C         141.2549  142.0044  164.1440 C.ar    1  UNL1        0.0207
     29 C         140.8656  143.1345  165.0502 C.ar    1  UNL1        0.0988
     30 N         140.4416  144.4504  164.4685 N.ar    1  UNL1       -0.2438
     31 C         140.4068  144.6363  162.9804 C.ar    1  UNL1        0.0813
     32 C         139.9598  146.0343  162.1655 C.ar    1  UNL1        0.0191
     33 C         139.8998  146.2958  160.6897 C.ar    1  UNL1        0.0016
     34 C         140.2742  145.2139  159.7205 C.ar    1  UNL1        0.0016
     35 C         140.4675  144.5563  161.0547 C.ar    1  UNL1        0.0015
     36 C         140.7960  143.5062  162.0741 C.ar    1  UNL1        0.0177
     37 H         140.9047  143.6276  153.7277 H       1  UNL1        0.1739
     38 H         143.2446  136.2708  158.7063 H       1  UNL1        0.1501
     39 C         141.3076  146.5387  152.7463 C.3     1  UNL1        0.2543
     40 O         140.1835  145.8278  153.4400 O.3     1  UNL1       -0.4553
@<TRIPOS>BOND
     1    39    40    1
     2    40     1    1
     3     1     2   ar
     4     2     3   ar
     5     3     4   ar
     6     4     5   ar
     7     5     6   ar
     8     6     7    1
     9     7     8    1
    10     8     9    2
    11     8    10    2
    12     8    11    1
    13    11    12   ar
    14    12    13   ar
    15    13    14   ar
    16    14    15   ar
    17    15    16   ar
    18    15    17    1
    19    17    18    2
    20    17    19   am
    21    19    20    1
    22    20    21    1
    23    21    22   ar
    24    22    23   ar
    25    23    24   ar
    26    24    25   ar
    27    25    26   ar
    28    25    27    1
    29    27    28   ar
    30    28    29   ar
    31    29    30   ar
    32    30    31   ar
    33    31    32   ar
    34    32    33   ar
    35    33    34   ar
    36    34    35   ar
    37    35    36   ar
    38     6     1   ar
    39    16    11   ar
    40    26    21   ar
    41    36    27   ar
    42    34     4    1
    43    36    31   ar
    44     7    37    1
    45    19    38    1
@<TRIPOS>MOLECULE
*****
 40 45 0 0 0
SMALL
GASTEIGER

@<TRIPOS>ATOM
      1 C         139.2441  147.0510  156.8434 C.ar    1  UNL1        0.2400
      2 N         139.1837  147.0106  155.3452 N.ar    1  UNL1       -0.2090
      3 C         139.5778  145.7627  154.6121 C.ar    1  UNL1        0.1021
      4 C         140.0781  144.3785  155.0712 C.ar    1  UNL1        0.0207
      5 C         139.8094  145.3207  156.2070 C.ar    1  UNL1        0.0221
      6 C         139.6986  145.8435  157.6086 C.ar    1  UNL1        0.1178
      7 N         139.7589  145.8839  159.1068 N.pl3   1  UNL1       -0.2104
      8 S         139.9832  145.4370  160.5210 S.O2    1  UNL1        0.0737
      9 O         139.8173  146.1093  161.8516 O.2     1  UNL1       -0.1499
     10 O         139.4906  146.8499  160.4155 O.2     1  UNL1       -0.1499
     11 C         140.3443  144.5567  161.6807 C.ar    1  UNL1        0.1253
     12 C         140.2335  145.0795  163.0822 C.ar    1  UNL1        0.0202
     13 C         140.5946  144.1992  164.2418 C.ar    1  UNL1        0.0015
     14 C         141.0666  142.7961  163.9998 C.ar    1  UNL1        0.0046
     15 C         141.1775  142.2733  162.5983 C.ar    1  UNL1        0.0547
     16 C         140.8163  143.1536  161.4387 C.ar    1  UNL1        0.0247
     17 C         141.7637  140.5570  162.4822 C.2     1  UNL1        0.2461
     18 O         141.9880  140.1101  163.8964 O.2     1  UNL1       -0.2701
     19 N         142.1578  139.3092  161.7490 N.am    1  UNL1       -0.2969
     20 C         142.4265  138.3670  160.6133 C.3     1  UNL1        0.1181
     21 C         142.5374  137.8442  159.2116 C.ar    1  UNL1        0.0166
     22 C         142.9750  136.4901  158.6184 C.ar    1  UNL1        0.0962
     23 N         143.0859  135.9673  157.2168 N.ar    1  UNL1       -0.2426
     24 C         142.7247  136.8476  156.0572 C.ar    1  UNL1        0.0988
     25 C         142.2527  138.2507  156.2992 C.ar    1  UNL1        0.0190
     26 C         142.4770  137.8038  157.7134 C.ar    1  UNL1        0.0005
     27 C         141.8916  139.1309  155.1396 C.ar    1  UNL1        0.0045
     28 C         142.2857  137.8830  154.4065 C.ar    1  UNL1        0.0207
     29 C         142.2253  137.8427  152.9082 C.ar    1  UNL1        0.0988
     30 N         141.7709  139.0501  152.1431 N.ar    1  UNL1       -0.2438
     31 C         141.3768  140.2980  152.8763 C.ar    1  UNL1        0.0813
     32 C         140.8478  141.7317  152.1812 C.ar    1  UNL1        0.0191
     33 C         140.4382  143.0141  152.8430 C.ar    1  UNL1        0.0016
     34 C         140.4722  143.1306  154.3381 C.ar    1  UNL1        0.0016
     35 C         140.9442  141.7275  154.0962 C.ar    1  UNL1        0.0015
     36 C         141.4371  140.3385  154.3745 C.ar    1  UNL1        0.0177
     37 H         139.4491  146.8048  159.2656 H       1  UNL1        0.1739
     38 H         142.3949  138.7314  162.5101 H       1  UNL1        0.1501
     39 C         138.4749  149.5324  156.8099 C.3     1  UNL1        0.2543
     40 O         138.8500  148.2989  157.5765 O.3     1  UNL1       -0.4553
@<TRIPOS>BOND
     1    39    40    1
     2    40     1    1
     3     1     2   ar
     4     2     3   ar
     5     3     4   ar
     6     4     5   ar
     7     5     6   ar
     8     6     7    1
     9     7     8    1
    10     8     9    2
    11     8    10    2
    12     8    11    1
    13    11    12   ar
    14    12    13   ar
    15    13    14   ar
    16    14    15   ar
    17    15    16   ar
    18    15    17    1
    19    17    18    2
    20    17    19   am
    21    19    20    1
    22    20    21    1
    23    21    22   ar
    24    22    23   ar
    25    23    24   ar
    26    24    25   ar
    27    25    26   ar
    28    25    27    1
    29    27    28   ar
    30    28    29   ar
    31    29    30   ar
    32    30    31   ar
    33    31    32   ar
    34    32    33   ar
    35    33    34   ar
    36    34    35   ar
    37    35    36   ar
    38     6     1   ar
    39    16    11   ar
    40    26    21   ar
    41    36    27   ar
    42    34     4    1
    43    36    31   ar
    44     7    37    1
    45    19    38    1
@<TRIPOS>MOLECULE
*****
 40 45 0 0 0
SMALL
GASTEIGER

@<TRIPOS>ATOM
      1 C         142.8169  136.9127  155.5844 C.ar    1  UNL1        0.2400
      2 N         143.0692  135.9869  156.7373 N.ar    1  UNL1       -0.2090
      3 C         142.8983  136.4774  158.1444 C.ar    1  UNL1        0.1021
      4 C         142.4861  137.8341  158.7499 C.ar    1  UNL1        0.0207
      5 C         142.5133  137.8357  157.2502 C.ar    1  UNL1        0.0221
      6 C         142.3936  138.3291  155.8387 C.ar    1  UNL1        0.1178
      7 N         142.1413  139.2550  154.6859 N.pl3   1  UNL1       -0.2104
      8 S         141.7868  140.5015  153.9306 S.O2    1  UNL1        0.0737
      9 O         141.7153  140.8349  152.4699 O.2     1  UNL1       -0.1499
     10 O         142.1440  139.3486  153.0400 O.2     1  UNL1       -0.1499
     11 C         141.3729  141.9185  153.6640 C.ar    1  UNL1        0.1253
     12 C         141.2532  142.4120  152.2526 C.ar    1  UNL1        0.0202
     13 C         140.8394  143.8289  151.9861 C.ar    1  UNL1        0.0015
     14 C         140.5453  144.7523  153.1310 C.ar    1  UNL1        0.0046
     15 C         140.6650  144.2589  154.5424 C.ar    1  UNL1        0.0547
     16 C         141.0788  142.8420  154.8089 C.ar    1  UNL1        0.0247
     17 C         140.2738  145.5033  155.8077 C.2     1  UNL1        0.2461
     18 O         139.9193  146.7499  155.0525 O.2     1  UNL1       -0.2701
     19 N         140.1028  145.9938  157.2149 N.am    1  UNL1       -0.2969
     20 C         140.0755  145.9923  158.7146 C.3     1  UNL1        0.1181
     21 C         140.1953  145.4987  160.1261 C.ar    1  UNL1        0.0166
     22 C         139.9744  146.1602  161.5011 C.ar    1  UNL1        0.0962
     23 N         140.0941  145.6667  162.9126 N.ar    1  UNL1       -0.2426
     24 C         140.5080  144.2498  163.1791 C.ar    1  UNL1        0.0988
     25 C         140.8021  143.3263  162.0342 C.ar    1  UNL1        0.0190
     26 C         140.4476  144.5729  161.2790 C.ar    1  UNL1        0.0005
     27 C         141.2159  141.9094  162.3008 C.ar    1  UNL1        0.0045
     28 C         141.0449  142.3999  163.7080 C.ar    1  UNL1        0.0207
     29 C         141.2973  141.4740  164.8608 C.ar    1  UNL1        0.0988
     30 N         141.7206  140.0577  164.6066 N.ar    1  UNL1       -0.2438
     31 C         141.8916  139.5672  163.1993 C.ar    1  UNL1        0.0813
     32 C         142.3569  138.0218  162.7371 C.ar    1  UNL1        0.0191
     33 C         142.5486  137.4593  161.3599 C.ar    1  UNL1        0.0016
     34 C         142.3151  138.3246  160.1571 C.ar    1  UNL1        0.0016
     35 C         142.0210  139.2481  161.3020 C.ar    1  UNL1        0.0015
     36 C         141.6393  140.4930  162.0464 C.ar    1  UNL1        0.0177
     37 H         142.3343  138.6489  153.9344 H       1  UNL1        0.1739
     38 H         139.8312  146.9237  157.0400 H       1  UNL1        0.1501
     39 C         141.8468  135.7496  153.4735 C.3     1  UNL1        0.2543
     40 O         142.9879  136.4222  154.1773 O.3     1  UNL1       -0.4553
@<TRIPOS>BOND
     1    39    40    1
     2    40     1    1
     3     1     2   ar
     4     2     3   ar
     5     3     4   ar
     6     4     5   ar
     7     5     6   ar
     8     6     7    1
     9     7     8    1
    10     8     9    2
    11     8    10    2
    12     8    11    1
    13    11    12   ar
    14    12    13   ar
    15    13    14   ar
    16    14    15   ar
    17    15    16   ar
    18    15    17    1
    19    17    18    2
    20    17    19   am
    21    19    20    1
    22    20    21    1
    23    21    22   ar
    24    22    23   ar
    25    23    24   ar
    26    24    25   ar
    27    25    26   ar
    28    25    27    1
    29    27    28   ar
    30    28    29   ar
    31    29    30   ar
    32    30    31   ar
    33    31    32   ar
    34    32    33   ar
    35    33    34   ar
    36    34    35   ar
    37    35    36   ar
    38     6     1   ar
    39    16    11   ar
    40    26    21   ar
    41    36    27   ar
    42    34     4    1
    43    36    31   ar
    44     7    37    1
    45    19    38    1
@<TRIPOS>MOLECULE
*****
 40 45 0 0 0
SMALL
GASTEIGER

@<TRIPOS>ATOM
      1 C         139.1144  146.0804  156.7923 C.ar    1  UNL1        0.2400
      2 N         138.3914  145.9907  155.4811 N.ar    1  UNL1       -0.2090
      3 C         138.3613  144.6935  154.7286 C.ar    1  UNL1        0.1021
      4 C         138.9507  143.2957  155.0041 C.ar    1  UNL1        0.0207
      5 C         139.2587  144.2940  156.0806 C.ar    1  UNL1        0.0221
      6 C         139.8072  144.8730  157.3509 C.ar    1  UNL1        0.1178
      7 N         140.5301  144.9627  158.6621 N.pl3   1  UNL1       -0.2104
      8 S         141.3404  144.5525  159.8560 S.O2    1  UNL1        0.0737
      9 O         141.8147  145.2817  161.0779 O.2     1  UNL1       -0.1499
     10 O         140.9164  145.9909  159.8915 O.2     1  UNL1       -0.1499
     11 C         142.1401  143.6917  160.7885 C.ar    1  UNL1        0.1253
     12 C         142.6886  144.2707  162.0589 C.ar    1  UNL1        0.0202
     13 C         143.4883  143.4099  162.9914 C.ar    1  UNL1        0.0015
     14 C         143.7395  141.9702  162.6534 C.ar    1  UNL1        0.0046
     15 C         143.1910  141.3913  161.3831 C.ar    1  UNL1        0.0547
     16 C         142.3913  142.2520  160.4506 C.ar    1  UNL1        0.0247
     17 C         143.5863  139.6361  161.1267 C.2     1  UNL1        0.2461
     18 O         144.3965  139.2258  162.3206 O.2     1  UNL1       -0.2701
     19 N         143.5561  138.3389  160.3741 N.am    1  UNL1       -0.2969
     20 C         143.2482  137.3406  159.2978 C.3     1  UNL1        0.1181
     21 C         142.6996  136.7616  158.0273 C.ar    1  UNL1        0.0166
     22 C         142.7659  135.3606  157.3873 C.ar    1  UNL1        0.0962
     23 N         142.2174  134.7817  156.1169 N.ar    1  UNL1       -0.2426
     24 C         141.4177  135.6424  155.1844 C.ar    1  UNL1        0.0988
     25 C         141.1665  137.0821  155.5223 C.ar    1  UNL1        0.0190
     26 C         141.9767  136.6718  156.7161 C.ar    1  UNL1        0.0005
     27 C         140.3668  137.9429  154.5898 C.ar    1  UNL1        0.0045
     28 C         140.3366  136.6456  153.8372 C.ar    1  UNL1        0.0207
     29 C         139.6136  136.5559  152.5261 C.ar    1  UNL1        0.0988
     30 N         138.9208  137.7633  151.9674 N.ar    1  UNL1       -0.2438
     31 C         138.9510  139.0606  152.7200 C.ar    1  UNL1        0.0813
     32 C         138.2330  140.5011  152.2429 C.ar    1  UNL1        0.0191
     33 C         138.2192  141.8312  152.9363 C.ar    1  UNL1        0.0016
     34 C         138.9206  141.9985  154.2516 C.ar    1  UNL1        0.0016
     35 C         139.1717  140.5588  153.9137 C.ar    1  UNL1        0.0015
     36 C         139.6740  139.1503  154.0312 C.ar    1  UNL1        0.0177
     37 H         140.3653  145.9077  158.8839 H       1  UNL1        0.1739
     38 H         144.0810  137.7739  160.9862 H       1  UNL1        0.1501
     39 C         138.7004  148.6440  156.8747 C.3     1  UNL1        0.2543
     40 O         139.1446  147.3776  157.5448 O.3     1  UNL1       -0.4553
@<TRIPOS>BOND
     1    39    40    1
     2    40     1    1
     3     1     2   ar
     4     2     3   ar
     5     3     4   ar
     6     4     5   ar
     7     5     6   ar
     8     6     7    1
     9     7     8    1
    10     8     9    2
    11     8    10    2
    12     8    11    1
    13    11    12   ar
    14    12    13   ar
    15    13    14   ar
    16    14    15   ar
    17    15    16   ar
    18    15    17    1
    19    17    18    2
    20    17    19   am
    21    19    20    1
    22    20    21    1
    23    21    22   ar
    24    22    23   ar
    25    23    24   ar
    26    24    25   ar
    27    25    26   ar
    28    25    27    1
    29    27    28   ar
    30    28    29   ar
    31    29    30   ar
    32    30    31   ar
    33    31    32   ar
    34    32    33   ar
    35    33    34   ar
    36    34    35   ar
    37    35    36   ar
    38     6     1   ar
    39    16    11   ar
    40    26    21   ar
    41    36    27   ar
    42    34     4    1
    43    36    31   ar
    44     7    37    1
    45    19    38    1
@<TRIPOS>MOLECULE
*****
 40 45 0 0 0
SMALL
GASTEIGER

@<TRIPOS>ATOM
      1 C         138.8578  142.6216  154.0316 C.ar    1  UNL1        0.2400
      2 N         138.5598  144.0132  154.5058 N.ar    1  UNL1       -0.2090
      3 C         138.9811  144.4438  155.8794 C.ar    1  UNL1        0.1021
      4 C         139.7174  143.7328  157.0325 C.ar    1  UNL1        0.0207
      5 C         139.5224  142.8636  155.8256 C.ar    1  UNL1        0.0221
      6 C         139.5772  141.6607  154.9312 C.ar    1  UNL1        0.1178
      7 N         139.8752  140.2692  154.4571 N.pl3   1  UNL1       -0.2104
      8 S         140.3806  138.8569  154.4605 S.O2    1  UNL1        0.0737
      9 O         140.3513  137.7508  153.4478 O.2     1  UNL1       -0.1499
     10 O         139.7057  139.2434  153.1778 O.2     1  UNL1       -0.1499
     11 C         141.0322  137.5941  154.9409 C.ar    1  UNL1        0.1253
     12 C         141.0870  136.3912  154.0465 C.ar    1  UNL1        0.0202
     13 C         141.7387  135.1285  154.5269 C.ar    1  UNL1        0.0015
     14 C         142.3355  135.0687  155.9018 C.ar    1  UNL1        0.0046
     15 C         142.2807  136.2716  156.7962 C.ar    1  UNL1        0.0547
     16 C         141.6291  137.5343  156.3157 C.ar    1  UNL1        0.0247
     17 C         143.0488  136.0303  158.4255 C.2     1  UNL1        0.2461
     18 O         143.5541  134.6180  158.4289 O.2     1  UNL1       -0.2701
     19 N         143.4701  136.4610  159.7992 N.am    1  UNL1       -0.2969
     20 C         143.6651  137.3302  161.0060 C.3     1  UNL1        0.1181
     21 C         143.6103  138.5331  161.9004 C.ar    1  UNL1        0.0166
     22 C         144.1102  138.8115  163.3321 C.ar    1  UNL1        0.0962
     23 N         144.0554  140.0144  164.2265 N.ar    1  UNL1       -0.2426
     24 C         143.4037  141.2772  163.7460 C.ar    1  UNL1        0.0988
     25 C         142.8069  141.3370  162.3712 C.ar    1  UNL1        0.0190
     26 C         143.3122  139.9247  162.3746 C.ar    1  UNL1        0.0005
     27 C         142.1553  142.5997  161.8907 C.ar    1  UNL1        0.0045
     28 C         142.5766  143.0304  163.2645 C.ar    1  UNL1        0.0207
     29 C         142.2785  144.4220  163.7385 C.ar    1  UNL1        0.0988
     30 N         141.5592  145.3828  162.8390 N.ar    1  UNL1       -0.2438
     31 C         141.1378  144.9521  161.4653 C.ar    1  UNL1        0.0813
     32 C         140.3288  145.8936  160.3350 C.ar    1  UNL1        0.0191
     33 C         139.8765  145.5366  158.9501 C.ar    1  UNL1        0.0016
     34 C         140.1387  144.1635  158.4061 C.ar    1  UNL1        0.0016
     35 C         140.7356  144.1037  159.7810 C.ar    1  UNL1        0.0015
     36 C         141.4359  143.5606  160.9912 C.ar    1  UNL1        0.0177
     37 H         139.4835  140.3085  153.5547 H       1  UNL1        0.1739
     38 H         143.8978  135.6323  160.1145 H       1  UNL1        0.1501
     39 C         137.0466  141.6765  152.4265 C.3     1  UNL1        0.2543
     40 O         138.4365  142.1910  152.6580 O.3     1  UNL1       -0.4553
@<TRIPOS>BOND
     1    39    40    1
     2    40     1    1
     3     1     2   ar
     4     2     3   ar
     5     3     4   ar
     6     4     5   ar
     7     5     6   ar
     8     6     7    1
     9     7     8    1
    10     8     9    2
    11     8    10    2
    12     8    11    1
    13    11    12   ar
    14    12    13   ar
    15    13    14   ar
    16    14    15   ar
    17    15    16   ar
    18    15    17    1
    19    17    18    2
    20    17    19   am
    21    19    20    1
    22    20    21    1
    23    21    22   ar
    24    22    23   ar
    25    23    24   ar
    26    24    25   ar
    27    25    26   ar
    28    25    27    1
    29    27    28   ar
    30    28    29   ar
    31    29    30   ar
    32    30    31   ar
    33    31    32   ar
    34    32    33   ar
    35    33    34   ar
    36    34    35   ar
    37    35    36   ar
    38     6     1   ar
    39    16    11   ar
    40    26    21   ar
    41    36    27   ar
    42    34     4    1
    43    36    31   ar
    44     7    37    1
    45    19    38    1
@<TRIPOS>MOLECULE
*****
 40 45 0 0 0
SMALL
GASTEIGER

@<TRIPOS>ATOM
      1 C         139.7569  145.3770  162.2489 C.ar    1  UNL1        0.2400
      2 N         139.4359  146.6372  161.5014 N.ar    1  UNL1       -0.2090
      3 C         139.6227  146.6953  160.0142 C.ar    1  UNL1        0.1021
      4 C         140.1121  145.6740  158.9680 C.ar    1  UNL1        0.0207
      5 C         140.1002  145.1332  160.3671 C.ar    1  UNL1        0.0221
      6 C         140.2646  144.1749  161.5092 C.ar    1  UNL1        0.1178
      7 N         140.5856  142.9146  162.2567 N.pl3   1  UNL1       -0.2104
      8 S         141.0244  141.5045  162.5194 S.O2    1  UNL1        0.0737
      9 O         141.1312  140.6747  163.7644 O.2     1  UNL1       -0.1499
     10 O         140.6054  142.2371  163.7595 O.2     1  UNL1       -0.1499
     11 C         141.5280  140.1145  162.2657 C.ar    1  UNL1        0.1253
     12 C         141.6925  139.1562  163.4078 C.ar    1  UNL1        0.0202
     13 C         142.1961  137.7663  163.1540 C.ar    1  UNL1        0.0015
     14 C         142.5353  137.3347  161.7581 C.ar    1  UNL1        0.0046
     15 C         142.3709  138.2930  160.6159 C.ar    1  UNL1        0.0547
     16 C         141.8672  139.6829  160.8697 C.ar    1  UNL1        0.0247
     17 C         142.8257  137.6116  158.9937 C.2     1  UNL1        0.2461
     18 O         143.2644  136.2014  159.2564 O.2     1  UNL1       -0.2701
     19 N         143.0124  137.6698  157.5065 N.am    1  UNL1       -0.2969
     20 C         143.0244  138.2106  156.1075 C.3     1  UNL1        0.1181
     21 C         142.8599  139.1690  154.9653 C.ar    1  UNL1        0.0166
     22 C         143.1075  139.0594  153.4475 C.ar    1  UNL1        0.0962
     23 N         142.9430  140.0178  152.3053 N.ar    1  UNL1       -0.2426
     24 C         142.4394  141.4077  152.5591 C.ar    1  UNL1        0.0988
     25 C         142.1002  141.8393  153.9551 C.ar    1  UNL1        0.0190
     26 C         142.5389  140.4292  154.2177 C.ar    1  UNL1        0.0005
     27 C         141.5965  143.2292  154.2089 C.ar    1  UNL1        0.0045
     28 C         141.7833  143.2874  152.7216 C.ar    1  UNL1        0.0207
     29 C         141.4624  144.5476  151.9742 C.ar    1  UNL1        0.0988
     30 N         140.9546  145.7497  152.7138 N.ar    1  UNL1       -0.2438
     31 C         140.7678  145.6916  154.2010 C.ar    1  UNL1        0.0813
     32 C         140.2122  146.9367  155.1805 C.ar    1  UNL1        0.0191
     33 C         139.9999  146.9551  156.6653 C.ar    1  UNL1        0.0016
     34 C         140.2989  145.7322  157.4808 C.ar    1  UNL1        0.0016
     35 C         140.6381  145.3006  156.0849 C.ar    1  UNL1        0.0015
     36 C         141.0887  144.4313  154.9486 C.ar    1  UNL1        0.0177
     37 H         140.3630  143.1979  163.1729 H       1  UNL1        0.1739
     38 H         143.3430  136.7575  157.3400 H       1  UNL1        0.1501
     39 C         138.3435  144.6769  164.3134 C.3     1  UNL1        0.2543
     40 O         139.5700  145.3189  163.7360 O.3     1  UNL1       -0.4553
@<TRIPOS>BOND
     1    39    40    1
     2    40     1    1
     3     1     2   ar
     4     2     3   ar
     5     3     4   ar
     6     4     5   ar
     7     5     6   ar
     8     6     7    1
     9     7     8    1
    10     8     9    2
    11     8    10    2
    12     8    11    1
    13    11    12   ar
    14    12    13   ar
    15    13    14   ar
    16    14    15   ar
    17    15    16   ar
    18    15    17    1
    19    17    18    2
    20    17    19   am
    21    19    20    1
    22    20    21    1
    23    21    22   ar
    24    22    23   ar
    25    23    24   ar
    26    24    25   ar
    27    25    26   ar
    28    25    27    1
    29    27    28   ar
    30    28    29   ar
    31    29    30   ar
    32    30    31   ar
    33    31    32   ar
    34    32    33   ar
    35    33    34   ar
    36    34    35   ar
    37    35    36   ar
    38     6     1   ar
    39    16    11   ar
    40    26    21   ar
    41    36    27   ar
    42    34     4    1
    43    36    31   ar
    44     7    37    1
    45    19    38    1
@<TRIPOS>MOLECULE
*****
 40 45 0 0 0
SMALL
GASTEIGER

@<TRIPOS>ATOM
      1 C         137.5214  142.3301  155.4470 C.ar    1  UNL1        0.2400
      2 N         137.0739  141.8121  154.1123 N.ar    1  UNL1       -0.2090
      3 C         137.5684  140.4848  153.6187 C.ar    1  UNL1        0.1021
      4 C         138.5170  139.4223  154.2090 C.ar    1  UNL1        0.0207
      5 C         138.3266  140.6120  155.1025 C.ar    1  UNL1        0.0221
      6 C         138.4635  141.5206  156.2881 C.ar    1  UNL1        0.1178
      7 N         138.9110  142.0386  157.6228 N.pl3   1  UNL1       -0.2104
      8 S         139.6152  142.1033  158.9457 S.O2    1  UNL1        0.0737
      9 O         139.6429  143.1197  160.0484 O.2     1  UNL1       -0.1499
     10 O         138.7611  143.3048  158.6678 O.2     1  UNL1       -0.1499
     11 C         140.4911  141.7071  160.0971 C.ar    1  UNL1        0.1253
     12 C         140.6280  142.6157  161.2827 C.ar    1  UNL1        0.0202
     13 C         141.5039  142.2195  162.4341 C.ar    1  UNL1        0.0015
     14 C         142.2430  140.9146  162.3999 C.ar    1  UNL1        0.0046
     15 C         142.1062  140.0060  161.2143 C.ar    1  UNL1        0.0547
     16 C         141.2302  140.4023  160.0629 C.ar    1  UNL1        0.0247
     17 C         143.0668  138.4679  161.3333 C.2     1  UNL1        0.2461
     18 O         143.7710  138.5326  162.6561 O.2     1  UNL1       -0.2701
     19 N         143.5612  137.1406  160.8396 N.am    1  UNL1       -0.2969
     20 C         143.7516  135.9509  159.9462 C.3     1  UNL1        0.1181
     21 C         143.6147  135.0423  158.7605 C.ar    1  UNL1        0.0166
     22 C         144.2149  133.6672  158.4058 C.ar    1  UNL1        0.0962
     23 N         144.0780  132.7585  157.2201 N.ar    1  UNL1       -0.2426
     24 C         143.2021  133.1548  156.0687 C.ar    1  UNL1        0.0988
     25 C         142.4630  134.4596  156.1029 C.ar    1  UNL1        0.0190
     26 C         143.1672  134.5243  157.4258 C.ar    1  UNL1        0.0005
     27 C         141.5871  134.8558  154.9516 C.ar    1  UNL1        0.0045
     28 C         142.0816  133.5284  154.4579 C.ar    1  UNL1        0.0207
     29 C         141.6341  133.0106  153.1231 C.ar    1  UNL1        0.0988
     30 N         140.6921  133.8199  152.2820 N.ar    1  UNL1       -0.2438
     31 C         140.1975  135.1473  152.7757 C.ar    1  UNL1        0.0813
     32 C         139.1461  136.1771  151.9680 C.ar    1  UNL1        0.0191
     33 C         138.6092  137.5115  152.3933 C.ar    1  UNL1        0.0016
     34 C         139.0115  138.0950  153.7154 C.ar    1  UNL1        0.0016
     35 C         139.7506  136.7902  153.6812 C.ar    1  UNL1        0.0015
     36 C         140.6450  135.6653  154.1105 C.ar    1  UNL1        0.0177
     37 H         138.4259  142.8950  157.6453 H       1  UNL1        0.1739
     38 H         144.1361  136.8805  161.5953 H       1  UNL1        0.1501
     39 C         137.5630  144.9258  155.3461 C.3     1  UNL1        0.2543
     40 O         137.0269  143.6573  155.9406 O.3     1  UNL1       -0.4553
@<TRIPOS>BOND
     1    39    40    1
     2    40     1    1
     3     1     2   ar
     4     2     3   ar
     5     3     4   ar
     6     4     5   ar
     7     5     6   ar
     8     6     7    1
     9     7     8    1
    10     8     9    2
    11     8    10    2
    12     8    11    1
    13    11    12   ar
    14    12    13   ar
    15    13    14   ar
    16    14    15   ar
    17    15    16   ar
    18    15    17    1
    19    17    18    2
    20    17    19   am
    21    19    20    1
    22    20    21    1
    23    21    22   ar
    24    22    23   ar
    25    23    24   ar
    26    24    25   ar
    27    25    26   ar
    28    25    27    1
    29    27    28   ar
    30    28    29   ar
    31    29    30   ar
    32    30    31   ar
    33    31    32   ar
    34    32    33   ar
    35    33    34   ar
    36    34    35   ar
    37    35    36   ar
    38     6     1   ar
    39    16    11   ar
    40    26    21   ar
    41    36    27   ar
    42    34     4    1
    43    36    31   ar
    44     7    37    1
    45    19    38    1
@<TRIPOS>MOLECULE
*****
 40 45 0 0 0
SMALL
GASTEIGER

@<TRIPOS>ATOM
      1 C         142.7870  143.4613  161.9207 C.ar    1  UNL1        0.2400
      2 N         143.4356  142.3511  162.6932 N.ar    1  UNL1       -0.2090
      3 C         143.5118  140.9733  162.1052 C.ar    1  UNL1        0.1021
      4 C         143.0390  140.3643  160.7700 C.ar    1  UNL1        0.0207
      5 C         142.7262  141.8255  160.9014 C.ar    1  UNL1        0.0221
      6 C         142.2147  143.1937  160.5602 C.ar    1  UNL1        0.1178
      7 N         141.5662  144.3039  159.7877 N.pl3   1  UNL1       -0.2104
      8 S         140.8588  145.0223  158.6771 S.O2    1  UNL1        0.0737
      9 O         140.4077  146.4407  158.4916 O.2     1  UNL1       -0.1499
     10 O         141.1824  145.9062  159.8450 O.2     1  UNL1       -0.1499
     11 C         140.1779  145.2621  157.3622 C.ar    1  UNL1        0.1253
     12 C         139.6664  146.6303  157.0210 C.ar    1  UNL1        0.0202
     13 C         138.9855  146.8701  155.7062 C.ar    1  UNL1        0.0015
     14 C         138.8161  145.7417  154.7325 C.ar    1  UNL1        0.0046
     15 C         139.3276  144.3735  155.0736 C.ar    1  UNL1        0.0547
     16 C         140.0085  144.1337  156.3885 C.ar    1  UNL1        0.0247
     17 C         139.0415  143.1233  153.7860 C.2     1  UNL1        0.2461
     18 O         138.3341  143.8416  152.6754 O.2     1  UNL1       -0.2701
     19 N         139.1178  141.7455  153.1981 N.am    1  UNL1       -0.2969
     20 C         139.4306  140.2843  153.0668 C.3     1  UNL1        0.1181
     21 C         139.9421  138.9161  153.4080 C.ar    1  UNL1        0.0166
     22 C         139.9362  137.5672  152.6614 C.ar    1  UNL1        0.0962
     23 N         140.4477  136.1990  153.0026 N.ar    1  UNL1       -0.2426
     24 C         141.1286  135.9592  154.3174 C.ar    1  UNL1        0.0988
     25 C         141.2980  137.0875  155.2911 C.ar    1  UNL1        0.0190
     26 C         140.5906  137.8059  154.1804 C.ar    1  UNL1        0.0005
     27 C         141.9789  136.8477  156.6059 C.ar    1  UNL1        0.0045
     28 C         142.0552  135.4698  156.0180 C.ar    1  UNL1        0.0207
     29 C         142.7038  134.3596  156.7905 C.ar    1  UNL1        0.0988
     30 N         143.2761  134.6272  158.1510 N.ar    1  UNL1       -0.2438
     31 C         143.1998  136.0051  158.7389 C.ar    1  UNL1        0.0813
     32 C         143.7857  136.4771  160.2397 C.ar    1  UNL1        0.0191
     33 C         143.7475  137.8268  160.8930 C.ar    1  UNL1        0.0016
     34 C         143.1152  138.9865  160.1821 C.ar    1  UNL1        0.0016
     35 C         142.9458  137.8582  159.2084 C.ar    1  UNL1        0.0015
     36 C         142.5512  137.1154  157.9664 C.ar    1  UNL1        0.0177
     37 H         141.6774  145.0445  160.4268 H       1  UNL1        0.1739
     38 H         138.6709  141.9029  152.3352 H       1  UNL1        0.1501
     39 C         141.7152  145.1393  163.5897 C.3     1  UNL1        0.2543
     40 O         142.7108  144.8391  162.5087 O.3     1  UNL1       -0.4553
@<TRIPOS>BOND
     1    39    40    1
     2    40     1    1
     3     1     2   ar
     4     2     3   ar
     5     3     4   ar
     6     4     5   ar
     7     5     6   ar
     8     6     7    1
     9     7     8    1
    10     8     9    2
    11     8    10    2
    12     8    11    1
    13    11    12   ar
    14    12    13   ar
    15    13    14   ar
    16    14    15   ar
    17    15    16   ar
    18    15    17    1
    19    17    18    2
    20    17    19   am
    21    19    20    1
    22    20    21    1
    23    21    22   ar
    24    22    23   ar
    25    23    24   ar
    26    24    25   ar
    27    25    26   ar
    28    25    27    1
    29    27    28   ar
    30    28    29   ar
    31    29    30   ar
    32    30    31   ar
    33    31    32   ar
    34    32    33   ar
    35    33    34   ar
    36    34    35   ar
    37    35    36   ar
    38     6     1   ar
    39    16    11   ar
    40    26    21   ar
    41    36    27   ar
    42    34     4    1
    43    36    31   ar
    44     7    37    1
    45    19    38    1
