@<TRIPOS>MOLECULE
*****
 22 24 0 0 0
SMALL
GASTEIGER

@<TRIPOS>ATOM
      1 C         139.0534  143.4970  164.1465 C.ar    1  UNL1        0.0396
      2 C         137.6981  143.7715  163.5652 C.ar    1  UNL1        0.1216
      3 N         137.8652  144.7522  162.4426 N.ar    1  UNL1       -0.1673
      4 N         139.3238  145.0839  162.3301 N.ar    1  UNL1       -0.2433
      5 C         140.0581  144.3081  163.3832 C.ar    1  UNL1        0.0971
      6 C         139.0495  140.2759  166.4648 C.ar    1  UNL1        0.0541
      7 C         138.7513  141.1993  165.3210 C.ar    1  UNL1        0.0021
      8 C         139.3516  142.5736  165.2904 C.ar    1  UNL1        0.0030
      9 C         140.2502  143.0244  166.4036 C.ar    1  UNL1        0.0009
     10 C         140.5485  142.1010  167.5474 C.ar    1  UNL1        0.0113
     11 C         139.9481  140.7267  167.5780 C.ar    1  UNL1        0.0589
     12 CL        140.2463  139.8033  168.7219 Cl      1  UNL1       -0.0824
     13 F         137.2959  138.6072  167.4083 F       1  UNL1       -0.1932
     14 C         138.4491  138.9016  166.4954 C.3     1  UNL1        0.3418
     15 F         139.0019  137.8218  165.6132 F       1  UNL1       -0.1932
     16 C         139.9399  146.0259  161.3386 C.3     1  UNL1        0.1722
     17 C         140.7438  145.4877  160.1922 C.ar    1  UNL1        0.0777
     18 C         140.3095  145.4382  158.7573 C.ar    1  UNL1        0.0385
     19 C         141.4204  144.8245  157.9577 C.ar    1  UNL1        0.1211
     20 N         142.5412  144.4948  158.8985 N.ar    1  UNL1       -0.1713
     21 N         142.1230  144.9047  160.2795 N.ar    1  UNL1       -0.2778
     22 H         142.6597  144.8080  161.0992 H       1  UNL1        0.1886
@<TRIPOS>BOND
     1    13    14    1
     2    14    15    1
     3    14     6    1
     4     6     7   ar
     5     7     8   ar
     6     8     1    1
     7     1     2   ar
     8     2     3   ar
     9     3     4   ar
    10     4    16    1
    11    16    17    1
    12    17    18   ar
    13    18    19   ar
    14    19    20   ar
    15    20    21   ar
    16     4     5   ar
    17     8     9   ar
    18     9    10   ar
    19    10    11   ar
    20    11    12    1
    21    11     6   ar
    22     5     1   ar
    23    21    17   ar
    24    21    22    1
@<TRIPOS>MOLECULE
*****
 22 24 0 0 0
SMALL
GASTEIGER

@<TRIPOS>ATOM
      1 C         139.1171  143.4676  164.3653 C.ar    1  UNL1        0.0396
      2 C         137.7482  143.6411  163.7771 C.ar    1  UNL1        0.1216
      3 N         137.8529  144.6114  162.6379 N.ar    1  UNL1       -0.1673
      4 N         139.2865  145.0375  162.5222 N.ar    1  UNL1       -0.2433
      5 C         140.0677  144.3306  163.5898 C.ar    1  UNL1        0.0971
      6 C         140.5724  142.2713  167.8583 C.ar    1  UNL1        0.0541
      7 C         140.2166  143.1530  166.6982 C.ar    1  UNL1        0.0021
      8 C         139.4729  142.5858  165.5255 C.ar    1  UNL1        0.0030
      9 C         139.0849  141.1369  165.5130 C.ar    1  UNL1        0.0009
     10 C         139.4407  140.2552  166.6731 C.ar    1  UNL1        0.0113
     11 C         140.1844  140.8224  167.8458 C.ar    1  UNL1        0.0589
     12 CL        140.5402  139.9406  169.0060 Cl      1  UNL1       -0.0824
     13 F         140.5754  143.5924  170.0954 F       1  UNL1       -0.1932
     14 C         141.3161  142.8385  169.0310 C.3     1  UNL1        0.3418
     15 F         142.8004  142.6518  169.1393 F       1  UNL1       -0.1932
     16 C         139.8413  146.0013  161.5156 C.3     1  UNL1        0.1722
     17 C         140.6660  145.4962  160.3690 C.ar    1  UNL1        0.0777
     18 C         140.2508  145.4715  158.9278 C.ar    1  UNL1        0.0385
     19 C         141.3789  144.8872  158.1303 C.ar    1  UNL1        0.1211
     20 N         142.4913  144.5508  159.0787 N.ar    1  UNL1       -0.1713
     21 N         142.0507  144.9272  160.4622 N.ar    1  UNL1       -0.2778
     22 H         142.5779  144.8196  161.2867 H       1  UNL1        0.1886
@<TRIPOS>BOND
     1    13    14    1
     2    14    15    1
     3    14     6    1
     4     6     7   ar
     5     7     8   ar
     6     8     1    1
     7     1     2   ar
     8     2     3   ar
     9     3     4   ar
    10     4    16    1
    11    16    17    1
    12    17    18   ar
    13    18    19   ar
    14    19    20   ar
    15    20    21   ar
    16     4     5   ar
    17     8     9   ar
    18     9    10   ar
    19    10    11   ar
    20    11    12    1
    21    11     6   ar
    22     5     1   ar
    23    21    17   ar
    24    21    22    1
@<TRIPOS>MOLECULE
*****
 22 24 0 0 0
SMALL
GASTEIGER

@<TRIPOS>ATOM
      1 C         138.7577  139.0496  166.0414 C.ar    1  UNL1        0.0396
      2 C         137.6379  138.4625  166.8484 C.ar    1  UNL1        0.1216
      3 N         137.8002  138.9195  168.2678 N.ar    1  UNL1       -0.1673
      4 N         139.0203  139.7893  168.3380 N.ar    1  UNL1       -0.2433
      5 C         139.6121  139.8696  166.9621 C.ar    1  UNL1        0.0971
      6 C         138.4445  139.4767  162.1082 C.ar    1  UNL1        0.0541
      7 C         138.2188  139.6747  163.5778 C.ar    1  UNL1        0.0021
      8 C         138.9835  138.8516  164.5717 C.ar    1  UNL1        0.0030
      9 C         139.9739  137.8305  164.0960 C.ar    1  UNL1        0.0009
     10 C         140.1997  137.6326  162.6264 C.ar    1  UNL1        0.0113
     11 C         139.4350  138.4556  161.6325 C.ar    1  UNL1        0.0589
     12 CL        139.6608  138.2576  160.1628 Cl      1  UNL1       -0.0824
     13 F         136.7146  139.6375  160.1766 F       1  UNL1       -0.1932
     14 C         137.6798  140.2998  161.1144 C.3     1  UNL1        0.3418
     15 F         137.8804  141.7852  161.0583 F       1  UNL1       -0.1932
     16 C         139.5549  140.4606  169.5683 C.3     1  UNL1        0.1722
     17 C         141.0297  140.4613  169.8415 C.ar    1  UNL1        0.0777
     18 C         141.9773  141.5905  169.5640 C.ar    1  UNL1        0.0385
     19 C         143.3493  141.1600  169.9912 C.ar    1  UNL1        0.1211
     20 N         143.2496  139.7648  170.5327 N.ar    1  UNL1       -0.1713
     21 N         141.8160  139.3329  170.4402 N.ar    1  UNL1       -0.2778
     22 H         141.4547  138.4618  170.7228 H       1  UNL1        0.1886
@<TRIPOS>BOND
     1    13    14    1
     2    14    15    1
     3    14     6    1
     4     6     7   ar
     5     7     8   ar
     6     8     1    1
     7     1     2   ar
     8     2     3   ar
     9     3     4   ar
    10     4    16    1
    11    16    17    1
    12    17    18   ar
    13    18    19   ar
    14    19    20   ar
    15    20    21   ar
    16     4     5   ar
    17     8     9   ar
    18     9    10   ar
    19    10    11   ar
    20    11    12    1
    21    11     6   ar
    22     5     1   ar
    23    21    17   ar
    24    21    22    1
@<TRIPOS>MOLECULE
*****
 22 24 0 0 0
SMALL
GASTEIGER

@<TRIPOS>ATOM
      1 C         140.0082  138.9710  166.0938 C.ar    1  UNL1        0.0396
      2 C         138.5820  138.5256  166.2266 C.ar    1  UNL1        0.1216
      3 N         138.0590  139.0304  167.5387 N.ar    1  UNL1       -0.1673
      4 N         139.1620  139.7878  168.2169 N.ar    1  UNL1       -0.2433
      5 C         140.3666  139.7510  167.3239 C.ar    1  UNL1        0.0971
      6 C         143.2299  138.9266  163.7768 C.ar    1  UNL1        0.0541
      7 C         142.3216  139.2112  164.9360 C.ar    1  UNL1        0.0021
      8 C         140.9165  138.6863  164.9344 C.ar    1  UNL1        0.0030
      9 C         140.4196  137.8767  163.7736 C.ar    1  UNL1        0.0009
     10 C         141.3279  137.5920  162.6143 C.ar    1  UNL1        0.0113
     11 C         142.7331  138.1170  162.6159 C.ar    1  UNL1        0.0589
     12 CL        143.6414  137.8323  161.4566 Cl      1  UNL1       -0.0824
     13 F         145.0744  140.4218  162.7223 F       1  UNL1       -0.1932
     14 C         144.6351  139.4515  163.7784 C.3     1  UNL1        0.3418
     15 F         145.6008  139.0062  164.8361 F       1  UNL1       -0.1932
     16 C         139.0756  140.4633  169.5534 C.3     1  UNL1        0.1722
     17 C         140.1249  141.4541  169.9622 C.ar    1  UNL1        0.0777
     18 C         140.3731  142.7890  169.3248 C.ar    1  UNL1        0.0385
     19 C         141.5119  143.4439  170.0489 C.ar    1  UNL1        0.1211
     20 N         141.9675  142.5137  171.1338 N.ar    1  UNL1       -0.1713
     21 N         141.1103  141.2839  171.0803 N.ar    1  UNL1       -0.2778
     22 H         141.1819  140.5023  171.6746 H       1  UNL1        0.1886
@<TRIPOS>BOND
     1    13    14    1
     2    14    15    1
     3    14     6    1
     4     6     7   ar
     5     7     8   ar
     6     8     1    1
     7     1     2   ar
     8     2     3   ar
     9     3     4   ar
    10     4    16    1
    11    16    17    1
    12    17    18   ar
    13    18    19   ar
    14    19    20   ar
    15    20    21   ar
    16     4     5   ar
    17     8     9   ar
    18     9    10   ar
    19    10    11   ar
    20    11    12    1
    21    11     6   ar
    22     5     1   ar
    23    21    17   ar
    24    21    22    1
@<TRIPOS>MOLECULE
*****
 22 24 0 0 0
SMALL
GASTEIGER

@<TRIPOS>ATOM
      1 C         141.0786  139.3388  166.2127 C.ar    1  UNL1        0.0396
      2 C         142.4838  138.8318  166.3479 C.ar    1  UNL1        0.1216
      3 N         143.0069  139.2667  167.6847 N.ar    1  UNL1       -0.1673
      4 N         141.9250  140.0426  168.3758 N.ar    1  UNL1       -0.2433
      5 C         140.7332  140.0872  167.4660 C.ar    1  UNL1        0.0971
      6 C         138.5660  140.0987  163.2362 C.ar    1  UNL1        0.0541
      7 C         139.4676  140.3038  164.4172 C.ar    1  UNL1        0.0021
      8 C         140.1770  139.1336  165.0315 C.ar    1  UNL1        0.0030
      9 C         139.9848  137.7582  164.4647 C.ar    1  UNL1        0.0009
     10 C         139.0832  137.5531  163.2836 C.ar    1  UNL1        0.0113
     11 C         138.3738  138.7233  162.6693 C.ar    1  UNL1        0.0589
     12 CL        137.4722  138.5181  161.4882 Cl      1  UNL1       -0.0824
     13 F         138.1376  141.6540  161.1997 F       1  UNL1       -0.1932
     14 C         137.8566  141.2689  162.6219 C.3     1  UNL1        0.3418
     15 F         136.8662  142.0540  163.4298 F       1  UNL1       -0.1932
     16 C         142.0184  140.6647  169.7375 C.3     1  UNL1        0.1722
     17 C         141.1646  141.8492  170.0811 C.ar    1  UNL1        0.0777
     18 C         141.3175  143.2358  169.5299 C.ar    1  UNL1        0.0385
     19 C         140.2554  144.0986  170.1444 C.ar    1  UNL1        0.1211
     20 N         139.4461  143.2452  171.0753 N.ar    1  UNL1       -0.1713
     21 N         140.0080  141.8549  171.0362 N.ar    1  UNL1       -0.2778
     22 H         139.6760  141.0820  171.5476 H       1  UNL1        0.1886
@<TRIPOS>BOND
     1    13    14    1
     2    14    15    1
     3    14     6    1
     4     6     7   ar
     5     7     8   ar
     6     8     1    1
     7     1     2   ar
     8     2     3   ar
     9     3     4   ar
    10     4    16    1
    11    16    17    1
    12    17    18   ar
    13    18    19   ar
    14    19    20   ar
    15    20    21   ar
    16     4     5   ar
    17     8     9   ar
    18     9    10   ar
    19    10    11   ar
    20    11    12    1
    21    11     6   ar
    22     5     1   ar
    23    21    17   ar
    24    21    22    1
@<TRIPOS>MOLECULE
*****
 22 24 0 0 0
SMALL
GASTEIGER

@<TRIPOS>ATOM
      1 C         139.9768  139.6475  166.7455 C.ar    1  UNL1        0.0396
      2 C         138.5972  139.1080  166.9813 C.ar    1  UNL1        0.1216
      3 N         138.2127  138.2818  165.7899 N.ar    1  UNL1       -0.1673
      4 N         139.3547  138.3107  164.8177 N.ar    1  UNL1       -0.2433
      5 C         140.4449  139.1548  165.4083 C.ar    1  UNL1        0.0971
      6 C         140.8205  142.4618  169.4135 C.ar    1  UNL1        0.0541
      7 C         140.0452  141.5837  168.4767 C.ar    1  UNL1        0.0021
      8 C         140.7522  140.5257  167.6824 C.ar    1  UNL1        0.0030
      9 C         142.2345  140.3459  167.8249 C.ar    1  UNL1        0.0009
     10 C         143.0098  141.2241  168.7617 C.ar    1  UNL1        0.0113
     11 C         142.3028  142.2820  169.5560 C.ar    1  UNL1        0.0589
     12 CL        143.0783  143.1602  170.4929 Cl      1  UNL1       -0.0824
     13 F         138.9987  143.1405  171.1369 F       1  UNL1       -0.1932
     14 C         140.1135  143.5197  170.2078 C.3     1  UNL1        0.3418
     15 F         140.5213  144.9569  170.0730 F       1  UNL1       -0.1932
     16 C         139.3986  137.6173  163.4883 C.3     1  UNL1        0.1722
     17 C         138.9686  138.3442  162.2487 C.ar    1  UNL1        0.0777
     18 C         137.8542  139.3439  162.1546 C.ar    1  UNL1        0.0385
     19 C         137.7744  139.8167  160.7333 C.ar    1  UNL1        0.1211
     20 N         138.8394  139.1092  159.9490 N.ar    1  UNL1       -0.1713
     21 N         139.5775  138.1992  160.8855 N.ar    1  UNL1       -0.2778
     22 H         140.3295  137.6101  160.6474 H       1  UNL1        0.1886
@<TRIPOS>BOND
     1    13    14    1
     2    14    15    1
     3    14     6    1
     4     6     7   ar
     5     7     8   ar
     6     8     1    1
     7     1     2   ar
     8     2     3   ar
     9     3     4   ar
    10     4    16    1
    11    16    17    1
    12    17    18   ar
    13    18    19   ar
    14    19    20   ar
    15    20    21   ar
    16     4     5   ar
    17     8     9   ar
    18     9    10   ar
    19    10    11   ar
    20    11    12    1
    21    11     6   ar
    22     5     1   ar
    23    21    17   ar
    24    21    22    1
@<TRIPOS>MOLECULE
*****
 22 24 0 0 0
SMALL
GASTEIGER

@<TRIPOS>ATOM
      1 C         139.4512  139.0547  164.8388 C.ar    1  UNL1        0.0396
      2 C         139.2051  137.6687  164.3208 C.ar    1  UNL1        0.1216
      3 N         138.5268  137.7856  162.9880 N.ar    1  UNL1       -0.1673
      4 N         138.3538  139.2440  162.6823 N.ar    1  UNL1       -0.2433
      5 C         138.9251  140.0283  163.8261 C.ar    1  UNL1        0.0971
      6 C         139.9330  140.2205  168.6016 C.ar    1  UNL1        0.0541
      7 C         139.2762  139.8696  167.2996 C.ar    1  UNL1        0.0021
      8 C         140.1081  139.4057  166.1409 C.ar    1  UNL1        0.0030
      9 C         141.5970  139.2927  166.2842 C.ar    1  UNL1        0.0009
     10 C         142.2538  139.6436  167.5863 C.ar    1  UNL1        0.0113
     11 C         141.4218  140.1075  168.7450 C.ar    1  UNL1        0.0589
     12 CL        142.0788  140.4584  170.0471 Cl      1  UNL1       -0.0824
     13 F         139.3001  142.0604  170.3233 F       1  UNL1       -0.1932
     14 C         139.1010  140.6844  169.7604 C.3     1  UNL1        0.3418
     15 F         138.0700  139.7723  170.3561 F       1  UNL1       -0.1932
     16 C         137.7207  139.8173  161.4492 C.3     1  UNL1        0.1722
     17 C         138.3368  139.5676  160.1045 C.ar    1  UNL1        0.0777
     18 C         139.5946  138.7941  159.8409 C.ar    1  UNL1        0.0385
     19 C         139.8384  138.7961  158.3608 C.ar    1  UNL1        0.1211
     20 N         138.7313  139.5709  157.7098 N.ar    1  UNL1       -0.1713
     21 N         137.8032  140.0477  158.7874 N.ar    1  UNL1       -0.2778
     22 H         136.9872  140.5820  158.6537 H       1  UNL1        0.1886
@<TRIPOS>BOND
     1    13    14    1
     2    14    15    1
     3    14     6    1
     4     6     7   ar
     5     7     8   ar
     6     8     1    1
     7     1     2   ar
     8     2     3   ar
     9     3     4   ar
    10     4    16    1
    11    16    17    1
    12    17    18   ar
    13    18    19   ar
    14    19    20   ar
    15    20    21   ar
    16     4     5   ar
    17     8     9   ar
    18     9    10   ar
    19    10    11   ar
    20    11    12    1
    21    11     6   ar
    22     5     1   ar
    23    21    17   ar
    24    21    22    1
@<TRIPOS>MOLECULE
*****
 22 24 0 0 0
SMALL
GASTEIGER

@<TRIPOS>ATOM
      1 C         141.1050  139.1997  165.6647 C.ar    1  UNL1        0.0396
      2 C         142.0091  138.1324  165.1229 C.ar    1  UNL1        0.1216
      3 N         141.2629  137.3920  164.0529 N.ar    1  UNL1       -0.1673
      4 N         139.8976  138.0018  163.9332 N.ar    1  UNL1       -0.2433
      5 C         139.8001  139.1190  164.9294 C.ar    1  UNL1        0.0971
      6 C         140.9803  141.1801  169.1016 C.ar    1  UNL1        0.0541
      7 C         140.6394  140.2035  168.0153 C.ar    1  UNL1        0.0021
      8 C         141.4460  140.1763  166.7510 C.ar    1  UNL1        0.0030
      9 C         142.5935  141.1257  166.5729 C.ar    1  UNL1        0.0009
     10 C         142.9345  142.1023  167.6591 C.ar    1  UNL1        0.0113
     11 C         142.1279  142.1295  168.9235 C.ar    1  UNL1        0.0589
     12 CL        142.4688  143.1061  170.0098 Cl      1  UNL1       -0.0824
     13 F         138.7276  141.6036  170.3247 F       1  UNL1       -0.1932
     14 C         140.1737  141.2073  170.3660 C.3     1  UNL1        0.3418
     15 F         140.8132  140.8381  171.6716 F       1  UNL1       -0.1932
     16 C         138.8193  137.5701  162.9841 C.3     1  UNL1        0.1722
     17 C         138.5541  138.3636  161.7392 C.ar    1  UNL1        0.0777
     18 C         139.5233  138.5949  160.6179 C.ar    1  UNL1        0.0385
     19 C         138.8415  139.4395  159.5826 C.ar    1  UNL1        0.1211
     20 N         137.4509  139.7302  160.0640 N.ar    1  UNL1       -0.1713
     21 N         137.2733  139.0653  161.3969 N.ar    1  UNL1       -0.2778
     22 H         136.4590  139.0858  161.9499 H       1  UNL1        0.1886
@<TRIPOS>BOND
     1    13    14    1
     2    14    15    1
     3    14     6    1
     4     6     7   ar
     5     7     8   ar
     6     8     1    1
     7     1     2   ar
     8     2     3   ar
     9     3     4   ar
    10     4    16    1
    11    16    17    1
    12    17    18   ar
    13    18    19   ar
    14    19    20   ar
    15    20    21   ar
    16     4     5   ar
    17     8     9   ar
    18     9    10   ar
    19    10    11   ar
    20    11    12    1
    21    11     6   ar
    22     5     1   ar
    23    21    17   ar
    24    21    22    1
@<TRIPOS>MOLECULE
*****
 22 24 0 0 0
SMALL
GASTEIGER

@<TRIPOS>ATOM
      1 C         139.5855  140.0246  164.7283 C.ar    1  UNL1        0.0396
      2 C         138.7903  138.9307  164.0794 C.ar    1  UNL1        0.1216
      3 N         138.3174  139.4297  162.7462 N.ar    1  UNL1       -0.1673
      4 N         138.8204  140.8320  162.5711 N.ar    1  UNL1       -0.2433
      5 C         139.6041  141.1996  163.7961 C.ar    1  UNL1        0.0971
      6 C         140.1495  140.2929  168.6475 C.ar    1  UNL1        0.0541
      7 C         139.4889  140.3619  167.3026 C.ar    1  UNL1        0.0021
      8 C         140.2462  139.9556  166.0732 C.ar    1  UNL1        0.0030
      9 C         141.6642  139.4802  166.1887 C.ar    1  UNL1        0.0009
     10 C         142.3248  139.4112  167.5336 C.ar    1  UNL1        0.0113
     11 C         141.5675  139.8176  168.7630 C.ar    1  UNL1        0.0589
     12 CL        142.2282  139.7485  170.1079 Cl      1  UNL1       -0.0824
     13 F         138.1235  139.9887  170.2452 F       1  UNL1       -0.1932
     14 C         139.3922  140.6992  169.8768 C.3     1  UNL1        0.3418
     15 F         139.9034  141.8160  170.7378 F       1  UNL1       -0.1932
     16 C         138.5815  141.7121  161.3802 C.3     1  UNL1        0.1722
     17 C         138.9435  143.1666  161.4378 C.ar    1  UNL1        0.0777
     18 C         140.1307  143.8064  160.7812 C.ar    1  UNL1        0.0385
     19 C         140.1029  145.2719  161.0998 C.ar    1  UNL1        0.1211
     20 N         138.8985  145.5378  161.9533 N.ar    1  UNL1       -0.1713
     21 N         138.1820  144.2367  162.1623 N.ar    1  UNL1       -0.2778
     22 H         137.3567  144.1077  162.6835 H       1  UNL1        0.1886
@<TRIPOS>BOND
     1    13    14    1
     2    14    15    1
     3    14     6    1
     4     6     7   ar
     5     7     8   ar
     6     8     1    1
     7     1     2   ar
     8     2     3   ar
     9     3     4   ar
    10     4    16    1
    11    16    17    1
    12    17    18   ar
    13    18    19   ar
    14    19    20   ar
    15    20    21   ar
    16     4     5   ar
    17     8     9   ar
    18     9    10   ar
    19    10    11   ar
    20    11    12    1
    21    11     6   ar
    22     5     1   ar
    23    21    17   ar
    24    21    22    1
