@<TRIPOS>MOLECULE
*****
 36 40 0 0 0
SMALL
GASTEIGER

@<TRIPOS>ATOM
      1 N         139.4863  143.0230  161.3565 N.3     1  UNL1       -0.2680
      2 C         139.9056  141.5843  161.2904 C.3     1  UNL1        0.0897
      3 C         139.4662  140.6254  162.3568 C.3     1  UNL1        0.0897
      4 N         138.6076  141.1050  163.4893 N.3     1  UNL1       -0.2679
      5 C         138.1882  142.5437  163.5554 C.3     1  UNL1        0.0897
      6 C         138.6276  143.5027  162.4891 C.3     1  UNL1        0.0897
      7 C         139.9257  143.9821  160.2902 C.3     1  UNL1        0.1064
      8 C         141.2428  144.6892  160.4138 C.3     1  UNL1        0.1483
      9 O         141.6703  145.6679  159.3606 O.3     1  UNL1       -0.3786
     10 H         142.5392  146.0322  159.5914 H       1  UNL1        0.2108
     11 C         143.3513  142.5621  160.2410 C.3     1  UNL1        0.0306
     12 C         143.1866  143.3539  161.5043 C.ar    1  UNL1       -0.0238
     13 C         142.1323  144.4175  161.5907 C.ar    1  UNL1        0.0015
     14 C         141.9676  145.2094  162.8539 C.ar    1  UNL1       -0.0020
     15 C         142.8571  144.9378  164.0308 C.ar    1  UNL1        0.0060
     16 C         143.9113  143.8742  163.9444 C.ar    1  UNL1        0.0748
     17 C         144.0761  143.0823  162.6812 C.ar    1  UNL1        0.0233
     18 C         145.1943  142.1045  162.8895 C.3     1  UNL1        0.2352
     19 O         145.7206  142.2921  164.2816 O.3     1  UNL1       -0.4404
     20 C         144.9277  143.3858  164.9335 C.2     1  UNL1        0.3413
     21 O         145.1178  143.9007  166.3295 O.2     1  UNL1       -0.2449
     22 C         138.1682  140.1460  164.5557 C.3     1  UNL1        0.1080
     23 C         139.1873  139.3430  165.3085 C.3     1  UNL1        0.1660
     24 O         139.1795  137.8458  165.2164 O.3     1  UNL1       -0.3771
     25 H         138.4577  137.5615  164.6342 H       1  UNL1        0.2109
     26 C         140.2141  140.0371  166.1533 C.ar    1  UNL1        0.0868
     27 C         139.7806  140.9333  167.2754 C.ar    1  UNL1        0.0136
     28 C         140.8073  141.6275  168.1203 C.ar    1  UNL1       -0.0101
     29 C         142.2676  141.4256  167.8431 C.ar    1  UNL1        0.0836
     30 C         142.7011  140.5294  166.7211 C.ar    1  UNL1        0.1084
     31 N         141.6744  139.8352  165.8762 N.ar    1  UNL1       -0.2450
     32 C         140.3738  142.5238  169.2423 C.3     1  UNL1        0.0231
     33 C         140.3461  143.8781  169.8865 C.3     1  UNL1        0.0047
     34 C         139.6508  142.7215  170.5416 C.3     1  UNL1        0.0047
     35 C         143.2944  142.1198  168.6880 C.1     1  UNL1        0.1017
     36 N         144.3212  142.8140  169.5328 N.1     1  UNL1       -0.1908
@<TRIPOS>BOND
     1    11    12    1
     2    12    13   ar
     3    13     8    1
     4     8     9    1
     5     8     7    1
     6     7     1    1
     7     1     2    1
     8     2     3    1
     9     3     4    1
    10     4    22    1
    11    22    23    1
    12    23    24    1
    13    23    26    1
    14    26    27   ar
    15    27    28   ar
    16    28    32    1
    17    32    33    1
    18    33    34    1
    19    28    29   ar
    20    29    35    1
    21    35    36    3
    22    29    30   ar
    23    30    31   ar
    24     4     5    1
    25     5     6    1
    26    13    14   ar
    27    14    15   ar
    28    15    16   ar
    29    16    17   ar
    30    17    18    1
    31    18    19    1
    32    19    20    1
    33    20    21    2
    34    17    12   ar
    35     6     1    1
    36    20    16    1
    37    31    26   ar
    38    34    32    1
    39     9    10    1
    40    24    25    1
@<TRIPOS>MOLECULE
*****
 36 40 0 0 0
SMALL
GASTEIGER

@<TRIPOS>ATOM
      1 N         138.6561  143.4503  162.8909 N.3     1  UNL1       -0.2680
      2 C         138.2979  143.2191  164.3290 C.3     1  UNL1        0.0897
      3 C         138.1434  141.8203  164.8478 C.3     1  UNL1        0.0897
      4 N         138.3472  140.6526  163.9286 N.3     1  UNL1       -0.2679
      5 C         138.7055  140.8838  162.4905 C.3     1  UNL1        0.0897
      6 C         138.8600  142.2826  161.9716 C.3     1  UNL1        0.0897
      7 C         138.8106  144.8492  162.3720 C.3     1  UNL1        0.1064
      8 C         140.1440  145.5326  162.4433 C.3     1  UNL1        0.1483
      9 O         140.2297  147.0247  162.3162 O.3     1  UNL1       -0.3786
     10 H         141.1567  147.3023  162.3838 H       1  UNL1        0.2108
     11 C         141.5791  144.3826  160.0731 C.3     1  UNL1        0.0306
     12 C         142.1092  144.1488  161.4567 C.ar    1  UNL1       -0.0238
     13 C         141.3917  144.7239  162.6419 C.ar    1  UNL1        0.0015
     14 C         141.9217  144.4902  164.0254 C.ar    1  UNL1       -0.0020
     15 C         143.1693  143.6815  164.2240 C.ar    1  UNL1        0.0060
     16 C         143.8869  143.1065  163.0389 C.ar    1  UNL1        0.0748
     17 C         143.3568  143.3401  161.6553 C.ar    1  UNL1        0.0233
     18 C         144.2721  142.6526  160.6860 C.3     1  UNL1        0.2352
     19 O         145.3678  141.9939  161.4706 O.3     1  UNL1       -0.4404
     20 C         145.1297  142.2744  162.9248 C.2     1  UNL1        0.3413
     21 O         145.9845  141.8053  164.0646 O.2     1  UNL1       -0.2449
     22 C         138.1927  139.2537  164.4475 C.3     1  UNL1        0.1080
     23 C         139.2151  138.6847  165.3862 C.3     1  UNL1        0.1660
     24 O         139.9481  137.4272  165.0240 O.3     1  UNL1       -0.3771
     25 H         139.6445  137.1141  164.1576 H       1  UNL1        0.2109
     26 C         139.5043  139.3732  166.6871 C.ar    1  UNL1        0.0868
     27 C         140.7652  140.1691  166.8502 C.ar    1  UNL1        0.0136
     28 C         141.0545  140.8576  168.1511 C.ar    1  UNL1       -0.0101
     29 C         140.0829  140.7503  169.2888 C.ar    1  UNL1        0.0836
     30 C         138.8219  139.9545  169.1256 C.ar    1  UNL1        0.1084
     31 N         138.5326  139.2659  167.8248 N.ar    1  UNL1       -0.2450
     32 C         142.3155  141.6535  168.3143 C.3     1  UNL1        0.0231
     33 C         143.4016  142.2011  169.1921 C.3     1  UNL1        0.0047
     34 C         143.4133  142.4845  167.7191 C.3     1  UNL1        0.0047
     35 C         140.3721  141.4389  170.5897 C.1     1  UNL1        0.1017
     36 N         140.6613  142.1275  171.8905 N.1     1  UNL1       -0.1908
@<TRIPOS>BOND
     1    11    12    1
     2    12    13   ar
     3    13     8    1
     4     8     9    1
     5     8     7    1
     6     7     1    1
     7     1     2    1
     8     2     3    1
     9     3     4    1
    10     4    22    1
    11    22    23    1
    12    23    24    1
    13    23    26    1
    14    26    27   ar
    15    27    28   ar
    16    28    32    1
    17    32    33    1
    18    33    34    1
    19    28    29   ar
    20    29    35    1
    21    35    36    3
    22    29    30   ar
    23    30    31   ar
    24     4     5    1
    25     5     6    1
    26    13    14   ar
    27    14    15   ar
    28    15    16   ar
    29    16    17   ar
    30    17    18    1
    31    18    19    1
    32    19    20    1
    33    20    21    2
    34    17    12   ar
    35     6     1    1
    36    20    16    1
    37    31    26   ar
    38    34    32    1
    39     9    10    1
    40    24    25    1
@<TRIPOS>MOLECULE
*****
 36 40 0 0 0
SMALL
GASTEIGER

@<TRIPOS>ATOM
      1 N         138.3950  140.7555  163.9656 N.3     1  UNL1       -0.2680
      2 C         137.9634  142.1921  163.9701 C.3     1  UNL1        0.0897
      3 C         138.2510  143.0652  162.7848 C.3     1  UNL1        0.0897
      4 N         138.9701  142.5019  161.5951 N.3     1  UNL1       -0.2679
      5 C         139.4017  141.0653  161.5906 C.3     1  UNL1        0.0897
      6 C         139.1141  140.1921  162.7758 C.3     1  UNL1        0.0897
      7 C         138.1074  139.8823  165.1508 C.3     1  UNL1        0.1064
      8 C         139.2370  139.2454  165.9047 C.3     1  UNL1        0.1483
      9 O         139.7361  137.8891  165.5033 O.3     1  UNL1       -0.3786
     10 H         140.4633  137.6258  166.0888 H       1  UNL1        0.2108
     11 C         141.7818  140.7834  165.5060 C.3     1  UNL1        0.0306
     12 C         141.1398  140.7339  166.8608 C.ar    1  UNL1       -0.0238
     13 C         139.8674  139.9649  167.0603 C.ar    1  UNL1        0.0015
     14 C         139.2255  139.9153  168.4150 C.ar    1  UNL1       -0.0020
     15 C         139.8559  140.6347  169.5704 C.ar    1  UNL1        0.0060
     16 C         141.1282  141.4037  169.3711 C.ar    1  UNL1        0.0748
     17 C         141.7702  141.4533  168.0163 C.ar    1  UNL1        0.0233
     18 C         143.0134  142.2859  168.1226 C.3     1  UNL1        0.2352
     19 O         143.1397  142.7508  169.5431 O.3     1  UNL1       -0.4404
     20 C         141.9747  142.2056  170.3147 C.2     1  UNL1        0.3413
     21 O         141.7036  142.4241  171.7737 O.2     1  UNL1       -0.2449
     22 C         139.2577  143.3751  160.4098 C.3     1  UNL1        0.1080
     23 C         140.3873  144.3607  160.4607 C.3     1  UNL1        0.1660
     24 O         140.5447  145.3780  159.3697 O.3     1  UNL1       -0.3771
     25 H         139.8388  145.2614  158.7146 H       1  UNL1        0.2109
     26 C         141.3593  144.3291  161.6027 C.ar    1  UNL1        0.0868
     27 C         142.3923  143.2441  161.6783 C.ar    1  UNL1        0.0136
     28 C         143.3644  143.2124  162.8202 C.ar    1  UNL1       -0.0101
     29 C         143.3035  144.2657  163.8865 C.ar    1  UNL1        0.0836
     30 C         142.2705  145.3507  163.8108 C.ar    1  UNL1        0.1084
     31 N         141.2984  145.3824  162.6689 N.ar    1  UNL1       -0.2450
     32 C         144.3975  142.1275  162.8960 C.3     1  UNL1        0.0231
     33 C         145.8081  141.6933  163.1635 C.3     1  UNL1        0.0047
     34 C         144.7760  140.6825  162.7597 C.3     1  UNL1        0.0047
     35 C         144.2756  144.2341  165.0285 C.1     1  UNL1        0.1017
     36 N         145.2478  144.2026  166.1704 N.1     1  UNL1       -0.1908
@<TRIPOS>BOND
     1    11    12    1
     2    12    13   ar
     3    13     8    1
     4     8     9    1
     5     8     7    1
     6     7     1    1
     7     1     2    1
     8     2     3    1
     9     3     4    1
    10     4    22    1
    11    22    23    1
    12    23    24    1
    13    23    26    1
    14    26    27   ar
    15    27    28   ar
    16    28    32    1
    17    32    33    1
    18    33    34    1
    19    28    29   ar
    20    29    35    1
    21    35    36    3
    22    29    30   ar
    23    30    31   ar
    24     4     5    1
    25     5     6    1
    26    13    14   ar
    27    14    15   ar
    28    15    16   ar
    29    16    17   ar
    30    17    18    1
    31    18    19    1
    32    19    20    1
    33    20    21    2
    34    17    12   ar
    35     6     1    1
    36    20    16    1
    37    31    26   ar
    38    34    32    1
    39     9    10    1
    40    24    25    1
@<TRIPOS>MOLECULE
*****
 36 40 0 0 0
SMALL
GASTEIGER

@<TRIPOS>ATOM
      1 N         138.4875  143.6464  162.7882 N.3     1  UNL1       -0.2680
      2 C         138.2564  143.2260  164.2094 C.3     1  UNL1        0.0897
      3 C         138.1557  141.7696  164.5537 C.3     1  UNL1        0.0897
      4 N         138.2861  140.7335  163.4769 N.3     1  UNL1       -0.2679
      5 C         138.5173  141.1539  162.0557 C.3     1  UNL1        0.0897
      6 C         138.6180  142.6103  161.7113 C.3     1  UNL1        0.0897
      7 C         138.5882  145.1028  162.4437 C.3     1  UNL1        0.1064
      8 C         139.9325  145.7634  162.3640 C.3     1  UNL1        0.1483
      9 O         140.0312  147.2290  162.0598 O.3     1  UNL1       -0.3786
     10 H         140.9642  147.4941  162.0452 H       1  UNL1        0.2108
     11 C         141.3953  144.5804  160.0271 C.3     1  UNL1        0.0306
     12 C         141.9097  144.3670  161.4199 C.ar    1  UNL1       -0.0238
     13 C         141.1783  144.9585  162.5884 C.ar    1  UNL1        0.0015
     14 C         141.6926  144.7451  163.9812 C.ar    1  UNL1       -0.0020
     15 C         142.9383  143.9402  164.2056 C.ar    1  UNL1        0.0060
     16 C         143.6696  143.3487  163.0372 C.ar    1  UNL1        0.0748
     17 C         143.1554  143.5620  161.6444 C.ar    1  UNL1        0.0233
     18 C         144.0820  142.8612  160.6956 C.3     1  UNL1        0.2352
     19 O         145.1690  142.2147  161.5021 O.3     1  UNL1       -0.4404
     20 C         144.9142  142.5159  162.9493 C.2     1  UNL1        0.3413
     21 O         145.7561  142.0638  164.1055 O.2     1  UNL1       -0.2449
     22 C         138.1854  139.2771  163.8213 C.3     1  UNL1        0.1080
     23 C         139.4185  138.5065  164.1899 C.3     1  UNL1        0.1660
     24 O         139.8538  137.3419  163.3507 O.3     1  UNL1       -0.3771
     25 H         139.2328  137.2235  162.6150 H       1  UNL1        0.2109
     26 C         140.2161  138.9004  165.3975 C.ar    1  UNL1        0.0868
     27 C         139.5223  139.4547  166.6064 C.ar    1  UNL1        0.0136
     28 C         140.3199  139.8487  167.8142 C.ar    1  UNL1       -0.0101
     29 C         141.8113  139.6884  167.8130 C.ar    1  UNL1        0.0836
     30 C         142.5051  139.1341  166.6041 C.ar    1  UNL1        0.1084
     31 N         141.7075  138.7402  165.3964 N.ar    1  UNL1       -0.2450
     32 C         139.6261  140.4029  169.0231 C.3     1  UNL1        0.0231
     33 C         139.4794  141.4797  170.0571 C.3     1  UNL1        0.0047
     34 C         138.5713  140.2861  170.0831 C.3     1  UNL1        0.0047
     35 C         142.6090  140.0824  169.0207 C.1     1  UNL1        0.1017
     36 N         143.4068  140.4762  170.2284 N.1     1  UNL1       -0.1908
@<TRIPOS>BOND
     1    11    12    1
     2    12    13   ar
     3    13     8    1
     4     8     9    1
     5     8     7    1
     6     7     1    1
     7     1     2    1
     8     2     3    1
     9     3     4    1
    10     4    22    1
    11    22    23    1
    12    23    24    1
    13    23    26    1
    14    26    27   ar
    15    27    28   ar
    16    28    32    1
    17    32    33    1
    18    33    34    1
    19    28    29   ar
    20    29    35    1
    21    35    36    3
    22    29    30   ar
    23    30    31   ar
    24     4     5    1
    25     5     6    1
    26    13    14   ar
    27    14    15   ar
    28    15    16   ar
    29    16    17   ar
    30    17    18    1
    31    18    19    1
    32    19    20    1
    33    20    21    2
    34    17    12   ar
    35     6     1    1
    36    20    16    1
    37    31    26   ar
    38    34    32    1
    39     9    10    1
    40    24    25    1
@<TRIPOS>MOLECULE
*****
 36 40 0 0 0
SMALL
GASTEIGER

@<TRIPOS>ATOM
      1 N         141.3697  138.0466  164.0389 N.3     1  UNL1       -0.2680
      2 C         141.9736  138.5935  162.7795 C.3     1  UNL1        0.0897
      3 C         141.1152  138.8098  161.5687 C.3     1  UNL1        0.0897
      4 N         139.6529  138.4792  161.6171 N.3     1  UNL1       -0.2679
      5 C         139.0490  137.9322  162.8765 C.3     1  UNL1        0.0897
      6 C         139.9073  137.7159  164.0875 C.3     1  UNL1        0.0897
      7 C         142.2280  137.8303  165.2499 C.3     1  UNL1        0.1064
      8 C         143.0021  138.9744  165.8346 C.3     1  UNL1        0.1483
      9 O         144.3315  139.3552  165.2536 O.3     1  UNL1       -0.3786
     10 H         144.6950  140.1087  165.7445 H       1  UNL1        0.2108
     11 C         141.4431  141.4953  165.3712 C.3     1  UNL1        0.0306
     12 C         141.6671  140.9982  166.7686 C.ar    1  UNL1       -0.0238
     13 C         142.4466  139.7377  167.0004 C.ar    1  UNL1        0.0015
     14 C         142.6707  139.2406  168.3977 C.ar    1  UNL1       -0.0020
     15 C         142.1153  140.0039  169.5634 C.ar    1  UNL1        0.0060
     16 C         141.3358  141.2643  169.3317 C.ar    1  UNL1        0.0748
     17 C         141.1117  141.7615  167.9344 C.ar    1  UNL1        0.0233
     18 C         140.3095  143.0263  168.0154 C.3     1  UNL1        0.2352
     19 O         140.0378  143.3109  169.4629 O.3     1  UNL1       -0.4404
     20 C         140.6721  142.2219  170.2764 C.2     1  UNL1        0.3413
     21 O         140.6470  142.1102  171.7720 O.2     1  UNL1       -0.2449
     22 C         138.7946  138.6955  160.4062 C.3     1  UNL1        0.1080
     23 C         138.1025  140.0106  160.2025 C.3     1  UNL1        0.1660
     24 O         137.3787  140.2862  158.9179 O.3     1  UNL1       -0.3771
     25 H         137.4552  139.5167  158.3322 H       1  UNL1        0.2109
     26 C         138.1342  141.0501  161.2834 C.ar    1  UNL1        0.0868
     27 C         139.0632  142.2223  161.1696 C.ar    1  UNL1        0.0136
     28 C         139.0950  143.2618  162.2504 C.ar    1  UNL1       -0.0101
     29 C         138.1978  143.1292  163.4452 C.ar    1  UNL1        0.0836
     30 C         137.2688  141.9571  163.5590 C.ar    1  UNL1        0.1084
     31 N         137.2370  140.9175  162.4781 N.ar    1  UNL1       -0.2450
     32 C         140.0240  144.4340  162.1367 C.3     1  UNL1        0.0231
     33 C         140.2452  145.8975  161.8928 C.3     1  UNL1        0.0047
     34 C         141.4120  145.0008  162.1836 C.3     1  UNL1        0.0047
     35 C         138.2295  144.1688  164.5261 C.1     1  UNL1        0.1017
     36 N         138.2612  145.2083  165.6070 N.1     1  UNL1       -0.1908
@<TRIPOS>BOND
     1    11    12    1
     2    12    13   ar
     3    13     8    1
     4     8     9    1
     5     8     7    1
     6     7     1    1
     7     1     2    1
     8     2     3    1
     9     3     4    1
    10     4    22    1
    11    22    23    1
    12    23    24    1
    13    23    26    1
    14    26    27   ar
    15    27    28   ar
    16    28    32    1
    17    32    33    1
    18    33    34    1
    19    28    29   ar
    20    29    35    1
    21    35    36    3
    22    29    30   ar
    23    30    31   ar
    24     4     5    1
    25     5     6    1
    26    13    14   ar
    27    14    15   ar
    28    15    16   ar
    29    16    17   ar
    30    17    18    1
    31    18    19    1
    32    19    20    1
    33    20    21    2
    34    17    12   ar
    35     6     1    1
    36    20    16    1
    37    31    26   ar
    38    34    32    1
    39     9    10    1
    40    24    25    1
@<TRIPOS>MOLECULE
*****
 36 40 0 0 0
SMALL
GASTEIGER

@<TRIPOS>ATOM
      1 N         140.9001  138.1617  164.4977 N.3     1  UNL1       -0.2680
      2 C         141.1072  138.3164  163.0202 C.3     1  UNL1        0.0897
      3 C         142.4120  138.8389  162.4964 C.3     1  UNL1        0.0897
      4 N         143.5098  139.2067  163.4502 N.3     1  UNL1       -0.2679
      5 C         143.3027  139.0520  164.9277 C.3     1  UNL1        0.0897
      6 C         141.9979  138.5295  165.4516 C.3     1  UNL1        0.0897
      7 C         139.5953  137.6392  165.0216 C.3     1  UNL1        0.1064
      8 C         138.5554  138.5931  165.5302 C.3     1  UNL1        0.1483
      9 O         137.5892  138.1539  166.5903 O.3     1  UNL1       -0.3786
     10 H         136.9890  138.8854  166.8037 H       1  UNL1        0.2108
     11 C         139.8357  140.8638  167.0152 C.3     1  UNL1        0.0306
     12 C         139.1218  141.1215  165.7214 C.ar    1  UNL1       -0.0238
     13 C         138.4817  139.9862  164.9788 C.ar    1  UNL1        0.0015
     14 C         137.7678  140.2439  163.6851 C.ar    1  UNL1       -0.0020
     15 C         137.6941  141.6369  163.1337 C.ar    1  UNL1        0.0060
     16 C         138.3342  142.7723  163.8762 C.ar    1  UNL1        0.0748
     17 C         139.0481  142.5146  165.1700 C.ar    1  UNL1        0.0233
     18 C         139.5797  143.8232  165.6748 C.3     1  UNL1        0.2352
     19 O         139.1944  144.8897  164.6929 O.3     1  UNL1       -0.4404
     20 C         138.4246  144.2402  163.5813 C.2     1  UNL1        0.3413
     21 O         137.8468  144.9364  162.3849 O.2     1  UNL1       -0.2449
     22 C         144.8146  139.7292  162.9263 C.3     1  UNL1        0.1080
     23 C         145.0679  141.2071  162.8833 C.3     1  UNL1        0.1660
     24 O         146.3554  141.7631  163.4153 O.3     1  UNL1       -0.3771
     25 H         146.9078  141.0383  163.7476 H       1  UNL1        0.2109
     26 C         144.0336  142.1288  162.3083 C.ar    1  UNL1        0.0868
     27 C         143.9582  142.3391  160.8250 C.ar    1  UNL1        0.0136
     28 C         142.9239  143.2608  160.2499 C.ar    1  UNL1       -0.0101
     29 C         141.9651  143.9722  161.1580 C.ar    1  UNL1        0.0836
     30 C         142.0406  143.7618  162.6413 C.ar    1  UNL1        0.1084
     31 N         143.0748  142.8401  163.2164 N.ar    1  UNL1       -0.2450
     32 C         142.8484  143.4712  158.7666 C.3     1  UNL1        0.0231
     33 C         142.2265  144.1465  157.5803 C.3     1  UNL1        0.0047
     34 C         143.3396  143.1604  157.3838 C.3     1  UNL1        0.0047
     35 C         140.9308  144.8940  160.5829 C.1     1  UNL1        0.1017
     36 N         139.8965  145.8156  160.0080 N.1     1  UNL1       -0.1908
@<TRIPOS>BOND
     1    11    12    1
     2    12    13   ar
     3    13     8    1
     4     8     9    1
     5     8     7    1
     6     7     1    1
     7     1     2    1
     8     2     3    1
     9     3     4    1
    10     4    22    1
    11    22    23    1
    12    23    24    1
    13    23    26    1
    14    26    27   ar
    15    27    28   ar
    16    28    32    1
    17    32    33    1
    18    33    34    1
    19    28    29   ar
    20    29    35    1
    21    35    36    3
    22    29    30   ar
    23    30    31   ar
    24     4     5    1
    25     5     6    1
    26    13    14   ar
    27    14    15   ar
    28    15    16   ar
    29    16    17   ar
    30    17    18    1
    31    18    19    1
    32    19    20    1
    33    20    21    2
    34    17    12   ar
    35     6     1    1
    36    20    16    1
    37    31    26   ar
    38    34    32    1
    39     9    10    1
    40    24    25    1
@<TRIPOS>MOLECULE
*****
 36 40 0 0 0
SMALL
GASTEIGER

@<TRIPOS>ATOM
      1 N         139.3287  143.4993  160.6869 N.3     1  UNL1       -0.2680
      2 C         140.1132  142.7003  159.6887 C.3     1  UNL1        0.0897
      3 C         139.8749  141.2254  159.5550 C.3     1  UNL1        0.0897
      4 N         138.8522  140.5495  160.4194 N.3     1  UNL1       -0.2679
      5 C         138.0677  141.3485  161.4175 C.3     1  UNL1        0.0897
      6 C         138.3059  142.8233  161.5513 C.3     1  UNL1        0.0897
      7 C         139.5670  144.9742  160.8207 C.3     1  UNL1        0.1064
      8 C         140.4642  145.4936  161.9046 C.3     1  UNL1        0.1483
      9 O         140.2916  146.8937  162.4144 O.3     1  UNL1       -0.3786
     10 H         140.9468  147.0684  163.1080 H       1  UNL1        0.2108
     11 C         140.0936  144.2530  164.6109 C.3     1  UNL1        0.0306
     12 C         141.3488  143.9926  163.8321 C.ar    1  UNL1       -0.0238
     13 C         141.5342  144.6129  162.4789 C.ar    1  UNL1        0.0015
     14 C         142.7894  144.3526  161.7001 C.ar    1  UNL1       -0.0020
     15 C         143.8593  143.4720  162.2743 C.ar    1  UNL1        0.0060
     16 C         143.6740  142.8517  163.6274 C.ar    1  UNL1        0.0748
     17 C         142.4188  143.1120  164.4063 C.ar    1  UNL1        0.0233
     18 C         142.5166  142.3683  165.7053 C.3     1  UNL1        0.2352
     19 O         143.8323  141.6483  165.7292 O.3     1  UNL1       -0.4404
     20 C         144.5476  141.9470  164.4450 C.2     1  UNL1        0.3413
     21 O         145.8992  141.4316  164.0482 O.2     1  UNL1       -0.2449
     22 C         138.6140  139.0746  160.2856 C.3     1  UNL1        0.1080
     23 C         138.4629  138.2249  161.5124 C.3     1  UNL1        0.1660
     24 O         137.2432  137.3693  161.6866 O.3     1  UNL1       -0.3771
     25 H         136.6574  137.4820  160.9218 H       1  UNL1        0.2109
     26 C         139.5315  138.2307  162.5650 C.ar    1  UNL1        0.0868
     27 C         139.2451  138.8038  163.9213 C.ar    1  UNL1        0.0136
     28 C         140.3137  138.8096  164.9739 C.ar    1  UNL1       -0.0101
     29 C         141.6687  138.2425  164.6703 C.ar    1  UNL1        0.0836
     30 C         141.9551  137.6694  163.3140 C.ar    1  UNL1        0.1084
     31 N         140.8866  137.6635  162.2613 N.ar    1  UNL1       -0.2450
     32 C         140.0273  139.3827  166.3303 C.3     1  UNL1        0.0231
     33 C         140.4772  140.1516  167.5371 C.3     1  UNL1        0.0047
     34 C         139.0813  139.6063  167.4727 C.3     1  UNL1        0.0047
     35 C         142.7374  138.2483  165.7229 C.1     1  UNL1        0.1017
     36 N         143.8060  138.2542  166.7756 N.1     1  UNL1       -0.1908
@<TRIPOS>BOND
     1    11    12    1
     2    12    13   ar
     3    13     8    1
     4     8     9    1
     5     8     7    1
     6     7     1    1
     7     1     2    1
     8     2     3    1
     9     3     4    1
    10     4    22    1
    11    22    23    1
    12    23    24    1
    13    23    26    1
    14    26    27   ar
    15    27    28   ar
    16    28    32    1
    17    32    33    1
    18    33    34    1
    19    28    29   ar
    20    29    35    1
    21    35    36    3
    22    29    30   ar
    23    30    31   ar
    24     4     5    1
    25     5     6    1
    26    13    14   ar
    27    14    15   ar
    28    15    16   ar
    29    16    17   ar
    30    17    18    1
    31    18    19    1
    32    19    20    1
    33    20    21    2
    34    17    12   ar
    35     6     1    1
    36    20    16    1
    37    31    26   ar
    38    34    32    1
    39     9    10    1
    40    24    25    1
@<TRIPOS>MOLECULE
*****
 36 40 0 0 0
SMALL
GASTEIGER

@<TRIPOS>ATOM
      1 N         140.9781  140.2659  166.5349 N.3     1  UNL1       -0.2680
      2 C         142.0567  139.5495  165.7776 C.3     1  UNL1        0.0897
      3 C         143.2364  140.3118  165.2512 C.3     1  UNL1        0.0897
      4 N         143.3375  141.7905  165.4821 N.3     1  UNL1       -0.2679
      5 C         142.2590  142.5069  166.2393 C.3     1  UNL1        0.0897
      6 C         141.0792  141.7446  166.7658 C.3     1  UNL1        0.0897
      7 C         139.7984  139.5036  167.0613 C.3     1  UNL1        0.1064
      8 C         138.5477  139.3965  166.2403 C.3     1  UNL1        0.1483
      9 O         137.3499  138.6787  166.7883 O.3     1  UNL1       -0.3786
     10 H         136.6328  138.7013  166.1355 H       1  UNL1        0.2108
     11 C         139.2315  137.7426  163.8325 C.3     1  UNL1        0.0306
     12 C         138.8365  139.1802  163.6673 C.ar    1  UNL1       -0.0238
     13 C         138.4946  140.0072  164.8712 C.ar    1  UNL1        0.0015
     14 C         138.0997  141.4448  164.7060 C.ar    1  UNL1       -0.0020
     15 C         138.0466  142.0555  163.3370 C.ar    1  UNL1        0.0060
     16 C         138.3885  141.2286  162.1332 C.ar    1  UNL1        0.0748
     17 C         138.7835  139.7910  162.2983 C.ar    1  UNL1        0.0233
     18 C         139.0641  139.2279  160.9366 C.3     1  UNL1        0.2352
     19 O         138.8426  140.3176  159.9299 O.3     1  UNL1       -0.4404
     20 C         138.4250  141.5541  160.6694 C.2     1  UNL1        0.3413
     21 O         138.1010  142.8827  160.0532 O.2     1  UNL1       -0.2449
     22 C         144.5173  142.5528  164.9556 C.3     1  UNL1        0.1080
     23 C         144.9391  142.3884  163.5255 C.3     1  UNL1        0.1660
     24 O         146.2729  141.7834  163.2019 O.3     1  UNL1       -0.3771
     25 H         146.7330  141.5558  164.0250 H       1  UNL1        0.2109
     26 C         144.0270  142.8290  162.4192 C.ar    1  UNL1        0.0868
     27 C         142.8250  143.6713  162.7288 C.ar    1  UNL1        0.0136
     28 C         141.9129  144.1119  161.6225 C.ar    1  UNL1       -0.0101
     29 C         142.2028  143.7103  160.2067 C.ar    1  UNL1        0.0836
     30 C         143.4047  142.8680  159.8971 C.ar    1  UNL1        0.1084
     31 N         144.3169  142.4274  161.0034 N.ar    1  UNL1       -0.2450
     32 C         140.7109  144.9542  161.9320 C.3     1  UNL1        0.0231
     33 C         139.9754  146.2572  161.8256 C.3     1  UNL1        0.0047
     34 C         139.3645  145.1100  162.5745 C.3     1  UNL1        0.0047
     35 C         141.2907  144.1509  159.1003 C.1     1  UNL1        0.1017
     36 N         140.3786  144.5914  157.9939 N.1     1  UNL1       -0.1908
@<TRIPOS>BOND
     1    11    12    1
     2    12    13   ar
     3    13     8    1
     4     8     9    1
     5     8     7    1
     6     7     1    1
     7     1     2    1
     8     2     3    1
     9     3     4    1
    10     4    22    1
    11    22    23    1
    12    23    24    1
    13    23    26    1
    14    26    27   ar
    15    27    28   ar
    16    28    32    1
    17    32    33    1
    18    33    34    1
    19    28    29   ar
    20    29    35    1
    21    35    36    3
    22    29    30   ar
    23    30    31   ar
    24     4     5    1
    25     5     6    1
    26    13    14   ar
    27    14    15   ar
    28    15    16   ar
    29    16    17   ar
    30    17    18    1
    31    18    19    1
    32    19    20    1
    33    20    21    2
    34    17    12   ar
    35     6     1    1
    36    20    16    1
    37    31    26   ar
    38    34    32    1
    39     9    10    1
    40    24    25    1
@<TRIPOS>MOLECULE
*****
 36 40 0 0 0
SMALL
GASTEIGER

@<TRIPOS>ATOM
      1 N         141.0551  140.3650  159.9425 N.3     1  UNL1       -0.2680
      2 C         139.6991  141.0063  159.9401 C.3     1  UNL1        0.0897
      3 C         139.5742  142.4966  160.0552 C.3     1  UNL1        0.0897
      4 N         140.8051  143.3457  160.1728 N.3     1  UNL1       -0.2679
      5 C         142.1611  142.7044  160.1752 C.3     1  UNL1        0.0897
      6 C         142.2862  141.2141  160.0600 C.3     1  UNL1        0.0897
      7 C         141.1802  138.8747  159.8274 C.3     1  UNL1        0.1064
      8 C         141.5519  138.0582  161.0295 C.3     1  UNL1        0.1483
      9 O         142.6917  137.0861  160.9526 O.3     1  UNL1       -0.3786
     10 H         142.7978  136.6439  161.8094 H       1  UNL1        0.2108
     11 C         142.8668  139.2895  163.4285 C.3     1  UNL1        0.0306
     12 C         141.4413  138.8295  163.5081 C.ar    1  UNL1       -0.0238
     13 C         140.7838  138.2138  162.3086 C.ar    1  UNL1        0.0015
     14 C         139.3584  137.7537  162.3881 C.ar    1  UNL1       -0.0020
     15 C         138.5903  137.9093  163.6671 C.ar    1  UNL1        0.0060
     16 C         139.2477  138.5249  164.8666 C.ar    1  UNL1        0.0748
     17 C         140.6732  138.9850  164.7871 C.ar    1  UNL1        0.0233
     18 C         141.0530  139.5507  166.1234 C.3     1  UNL1        0.2352
     19 O         139.8622  139.4402  167.0288 O.3     1  UNL1       -0.4404
     20 C         138.7465  138.8062  166.2521 C.2     1  UNL1        0.3413
     21 O         137.3710  138.5063  166.7699 O.2     1  UNL1       -0.2449
     22 C         140.6801  144.8360  160.2879 C.3     1  UNL1        0.1080
     23 C         139.9351  145.4393  161.4416 C.3     1  UNL1        0.1660
     24 O         139.0771  146.6512  161.2289 O.3     1  UNL1       -0.3771
     25 H         139.1146  146.9142  160.2960 H       1  UNL1        0.2109
     26 C         140.0481  144.8308  162.8080 C.ar    1  UNL1        0.0868
     27 C         141.3701  144.3117  163.2907 C.ar    1  UNL1        0.0136
     28 C         141.4832  143.7031  164.6570 C.ar    1  UNL1       -0.0101
     29 C         140.2744  143.6137  165.5406 C.ar    1  UNL1        0.0836
     30 C         138.9524  144.1328  165.0579 C.ar    1  UNL1        0.1084
     31 N         138.8393  144.7413  163.6915 N.ar    1  UNL1       -0.2450
     32 C         142.8051  143.1840  165.1398 C.3     1  UNL1        0.0231
     33 C         144.2719  143.3876  165.3787 C.3     1  UNL1        0.0047
     34 C         143.6278  142.0812  165.7373 C.3     1  UNL1        0.0047
     35 C         140.3874  143.0051  166.9070 C.1     1  UNL1        0.1017
     36 N         140.5003  142.3965  168.2733 N.1     1  UNL1       -0.1908
@<TRIPOS>BOND
     1    11    12    1
     2    12    13   ar
     3    13     8    1
     4     8     9    1
     5     8     7    1
     6     7     1    1
     7     1     2    1
     8     2     3    1
     9     3     4    1
    10     4    22    1
    11    22    23    1
    12    23    24    1
    13    23    26    1
    14    26    27   ar
    15    27    28   ar
    16    28    32    1
    17    32    33    1
    18    33    34    1
    19    28    29   ar
    20    29    35    1
    21    35    36    3
    22    29    30   ar
    23    30    31   ar
    24     4     5    1
    25     5     6    1
    26    13    14   ar
    27    14    15   ar
    28    15    16   ar
    29    16    17   ar
    30    17    18    1
    31    18    19    1
    32    19    20    1
    33    20    21    2
    34    17    12   ar
    35     6     1    1
    36    20    16    1
    37    31    26   ar
    38    34    32    1
    39     9    10    1
    40    24    25    1
