@<TRIPOS>MOLECULE
*****
 37 42 0 0 0
SMALL
GASTEIGER

@<TRIPOS>ATOM
      1 C         139.2778  139.2922  164.8193 C.ar    1  UNL1        0.1188
      2 C         138.3859  138.5158  165.7421 C.ar    1  UNL1        0.0223
      3 C         138.3376  138.8576  167.2018 C.ar    1  UNL1        0.0032
      4 C         139.1811  139.9757  167.7387 C.ar    1  UNL1        0.0189
      5 C         139.1327  140.3175  169.1984 C.ar    1  UNL1        0.0016
      6 C         139.9763  141.4356  169.7353 C.ar    1  UNL1        0.0014
      7 C         140.8682  142.2120  168.8124 C.ar    1  UNL1        0.0158
      8 C         140.9166  141.8703  167.3527 C.ar    1  UNL1        0.0625
      9 C         140.0730  140.7521  166.8158 C.ar    1  UNL1        0.0944
     10 N         140.1213  140.4103  165.3560 N.ar    1  UNL1       -0.2410
     11 N         142.8905  140.4144  158.7925 N.pl3   1  UNL1       -0.2980
     12 C         142.5604  139.8232  157.4541 C.3     1  UNL1        0.1387
     13 C         141.3799  138.9093  157.3085 C.3     1  UNL1        0.2269
     14 O         140.5295  138.5867  158.5012 O.3     1  UNL1       -0.4692
     15 C         140.8596  139.1780  159.8396 C.ar    1  UNL1        0.1907
     16 C         142.0401  140.0918  159.9853 C.ar    1  UNL1        0.1068
     17 C         142.3703  140.6831  161.3238 C.ar    1  UNL1        0.1382
     18 N         141.5199  140.3605  162.5165 N.ar    1  UNL1       -0.1592
     19 N         140.3393  139.4467  162.3709 N.ar    1  UNL1       -0.1869
     20 C         139.3262  138.9505  163.3594 C.ar    1  UNL1        0.2041
     21 N         138.3699  138.0525  162.6320 N.ar    1  UNL1       -0.1253
     22 N         138.7920  137.9938  161.1938 N.ar    1  UNL1       -0.1237
     23 C         140.0092  138.8554  161.0325 C.ar    1  UNL1        0.2218
     24 C         144.0711  141.3283  158.9382 C.3     1  UNL1        0.1232
     25 C         143.9445  142.7797  158.5815 C.3     1  UNL1        0.1636
     26 C         141.7537  143.8644  159.4613 C.3     1  UNL1        0.1742
     27 O         143.2461  143.7234  159.5152 O.3     1  UNL1       -0.3493
     28 N         141.8085  142.6466  166.4297 N.pl3   1  UNL1       -0.3315
     29 H         141.4899  143.4876  166.0291 H       1  UNL1        0.1469
     30 C         143.1859  142.1415  166.1171 C.3     1  UNL1        0.0871
     31 C         143.8204  142.4622  164.7963 C.3     1  UNL1        0.0223
     32 C         143.4711  143.7363  164.0860 C.3     1  UNL1        0.0188
     33 C         144.1057  144.0570  162.7652 C.3     1  UNL1        0.0686
     34 N         145.0896  143.1035  162.1547 N.3     1  UNL1       -0.2975
     35 C         145.4389  141.8293  162.8650 C.3     1  UNL1        0.0686
     36 C         144.8043  141.5087  164.1858 C.3     1  UNL1        0.0188
     37 H         145.9607  143.6192  162.0296 H       1  UNL1        0.1232
@<TRIPOS>BOND
     1    26    27    1
     2    27    25    1
     3    25    24    1
     4    24    11    1
     5    11    12    1
     6    12    13    1
     7    13    14    1
     8    14    15    1
     9    15    16   ar
    10    16    17   ar
    11    17    18   ar
    12    18    19   ar
    13    19    20   ar
    14    20     1    1
    15     1     2   ar
    16     2     3   ar
    17     3     4   ar
    18     4     5   ar
    19     5     6   ar
    20     6     7   ar
    21     7     8   ar
    22     8    28    1
    23    28    30    1
    24    30    31    1
    25    31    32    1
    26    32    33    1
    27    33    34    1
    28    34    35    1
    29    35    36    1
    30     8     9   ar
    31     9    10   ar
    32    20    21   ar
    33    21    22   ar
    34    22    23   ar
    35    16    11    1
    36    23    19   ar
    37    23    15   ar
    38    10     1   ar
    39     9     4   ar
    40    36    31    1
    41    28    29    1
    42    34    37    1
@<TRIPOS>MOLECULE
*****
 37 42 0 0 0
SMALL
GASTEIGER

@<TRIPOS>ATOM
      1 C         138.9972  139.3945  164.9022 C.ar    1  UNL1        0.1188
      2 C         138.1484  138.6411  165.8830 C.ar    1  UNL1        0.0223
      3 C         138.2390  138.9526  167.3475 C.ar    1  UNL1        0.0032
      4 C         139.1783  140.0173  167.8312 C.ar    1  UNL1        0.0189
      5 C         139.2688  140.3287  169.2957 C.ar    1  UNL1        0.0016
      6 C         140.2081  141.3935  169.7794 C.ar    1  UNL1        0.0014
      7 C         141.0568  142.1469  168.7986 C.ar    1  UNL1        0.0158
      8 C         140.9663  141.8355  167.3341 C.ar    1  UNL1        0.0625
      9 C         140.0271  140.7707  166.8504 C.ar    1  UNL1        0.0944
     10 N         139.9365  140.4592  165.3858 N.ar    1  UNL1       -0.2410
     11 N         139.4180  142.2595  158.4024 N.pl3   1  UNL1       -0.2980
     12 C         139.2478  141.5186  157.1094 C.3     1  UNL1        0.1387
     13 C         138.9629  140.0459  157.1207 C.3     1  UNL1        0.2269
     14 O         138.8481  139.3142  158.4251 O.3     1  UNL1       -0.4692
     15 C         139.0182  140.0552  159.7181 C.ar    1  UNL1        0.1907
     16 C         139.3032  141.5278  159.7068 C.ar    1  UNL1        0.1068
     17 C         139.4734  142.2688  160.9999 C.ar    1  UNL1        0.1382
     18 N         139.3586  141.5371  162.3043 N.ar    1  UNL1       -0.1592
     19 N         139.0736  140.0645  162.3156 N.ar    1  UNL1       -0.1869
     20 C         138.9067  139.0830  163.4376 C.ar    1  UNL1        0.2041
     21 N         138.6334  137.7356  162.8380 N.ar    1  UNL1       -0.1253
     22 N         138.6314  137.8842  161.3454 N.ar    1  UNL1       -0.1237
     23 C         138.9034  139.3235  161.0226 C.ar    1  UNL1        0.2218
     24 C         139.7030  143.7322  158.3911 C.3     1  UNL1        0.1232
     25 C         141.1174  144.2216  158.2926 C.3     1  UNL1        0.1636
     26 C         140.8417  145.4759  160.5512 C.3     1  UNL1        0.1742
     27 O         141.6777  145.1155  159.3590 O.3     1  UNL1       -0.3493
     28 N         141.8151  142.5889  166.3532 N.pl3   1  UNL1       -0.3315
     29 H         141.3968  143.2164  165.7203 H       1  UNL1        0.1469
     30 C         143.3012  142.3861  166.3365 C.3     1  UNL1        0.0871
     31 C         143.9545  141.7222  165.1607 C.3     1  UNL1        0.0223
     32 C         144.9328  142.4845  164.3170 C.3     1  UNL1        0.0188
     33 C         145.5861  141.8207  163.1412 C.3     1  UNL1        0.0686
     34 N         145.2610  140.3946  162.8090 N.3     1  UNL1       -0.2975
     35 C         144.2825  139.6323  163.6527 C.3     1  UNL1        0.0686
     36 C         143.6293  140.2961  164.8285 C.3     1  UNL1        0.0188
     37 H         146.1399  139.8778  162.8378 H       1  UNL1        0.1232
@<TRIPOS>BOND
     1    26    27    1
     2    27    25    1
     3    25    24    1
     4    24    11    1
     5    11    12    1
     6    12    13    1
     7    13    14    1
     8    14    15    1
     9    15    16   ar
    10    16    17   ar
    11    17    18   ar
    12    18    19   ar
    13    19    20   ar
    14    20     1    1
    15     1     2   ar
    16     2     3   ar
    17     3     4   ar
    18     4     5   ar
    19     5     6   ar
    20     6     7   ar
    21     7     8   ar
    22     8    28    1
    23    28    30    1
    24    30    31    1
    25    31    32    1
    26    32    33    1
    27    33    34    1
    28    34    35    1
    29    35    36    1
    30     8     9   ar
    31     9    10   ar
    32    20    21   ar
    33    21    22   ar
    34    22    23   ar
    35    16    11    1
    36    23    19   ar
    37    23    15   ar
    38    10     1   ar
    39     9     4   ar
    40    36    31    1
    41    28    29    1
    42    34    37    1
@<TRIPOS>MOLECULE
*****
 37 42 0 0 0
SMALL
GASTEIGER

@<TRIPOS>ATOM
      1 C         138.9027  140.1685  164.5671 C.ar    1  UNL1        0.1188
      2 C         138.1428  139.2567  165.4843 C.ar    1  UNL1        0.0223
      3 C         138.4708  139.2215  166.9475 C.ar    1  UNL1        0.0032
      4 C         139.5587  140.0979  167.4936 C.ar    1  UNL1        0.0189
      5 C         139.8867  140.0627  168.9568 C.ar    1  UNL1        0.0016
      6 C         140.9746  140.9391  169.5029 C.ar    1  UNL1        0.0014
      7 C         141.7345  141.8509  168.5858 C.ar    1  UNL1        0.0158
      8 C         141.4066  141.8862  167.1225 C.ar    1  UNL1        0.0625
      9 C         140.3186  141.0097  166.5764 C.ar    1  UNL1        0.0944
     10 N         139.9906  141.0449  165.1131 N.ar    1  UNL1       -0.2410
     11 N         141.2632  138.2881  158.1231 N.pl3   1  UNL1       -0.2980
     12 C         140.5549  138.5428  156.8256 C.3     1  UNL1        0.1387
     13 C         139.2320  139.2499  156.8195 C.3     1  UNL1        0.2269
     14 O         138.6175  139.7024  158.1108 O.3     1  UNL1       -0.4692
     15 C         139.3258  139.4478  159.4083 C.ar    1  UNL1        0.1907
     16 C         140.6486  138.7406  159.4144 C.ar    1  UNL1        0.1068
     17 C         141.3570  138.4860  160.7119 C.ar    1  UNL1        0.1382
     18 N         140.7424  138.9385  162.0032 N.ar    1  UNL1       -0.1592
     19 N         139.4196  139.6457  161.9971 N.ar    1  UNL1       -0.1869
     20 C         138.5747  140.2038  163.1037 C.ar    1  UNL1        0.2041
     21 N         137.3442  140.8033  162.4902 N.ar    1  UNL1       -0.1253
     22 N         137.4286  140.6157  161.0044 N.ar    1  UNL1       -0.1237
     23 C         138.7113  139.9003  160.6997 C.ar    1  UNL1        0.2218
     24 C         142.5860  137.5810  158.1292 C.3     1  UNL1        0.1232
     25 C         142.8971  136.5629  157.0725 C.3     1  UNL1        0.1636
     26 C         144.1605  138.0225  155.3338 C.3     1  UNL1        0.1742
     27 O         144.0636  136.7693  156.1524 O.3     1  UNL1       -0.3493
     28 N         142.1664  142.7980  166.2052 N.pl3   1  UNL1       -0.3315
     29 H         141.7051  143.5461  165.7617 H       1  UNL1        0.1469
     30 C         143.6292  142.5698  165.9638 C.3     1  UNL1        0.0871
     31 C         144.0797  141.8105  164.7512 C.3     1  UNL1        0.0223
     32 C         143.8384  140.3329  164.6589 C.3     1  UNL1        0.0188
     33 C         144.2889  139.5737  163.4463 C.3     1  UNL1        0.0686
     34 N         144.9808  140.2920  162.3259 N.3     1  UNL1       -0.2975
     35 C         145.2222  141.7696  162.4182 C.3     1  UNL1        0.0686
     36 C         144.7716  142.5289  163.6308 C.3     1  UNL1        0.0188
     37 H         144.4218  140.1367  161.4869 H       1  UNL1        0.1232
@<TRIPOS>BOND
     1    26    27    1
     2    27    25    1
     3    25    24    1
     4    24    11    1
     5    11    12    1
     6    12    13    1
     7    13    14    1
     8    14    15    1
     9    15    16   ar
    10    16    17   ar
    11    17    18   ar
    12    18    19   ar
    13    19    20   ar
    14    20     1    1
    15     1     2   ar
    16     2     3   ar
    17     3     4   ar
    18     4     5   ar
    19     5     6   ar
    20     6     7   ar
    21     7     8   ar
    22     8    28    1
    23    28    30    1
    24    30    31    1
    25    31    32    1
    26    32    33    1
    27    33    34    1
    28    34    35    1
    29    35    36    1
    30     8     9   ar
    31     9    10   ar
    32    20    21   ar
    33    21    22   ar
    34    22    23   ar
    35    16    11    1
    36    23    19   ar
    37    23    15   ar
    38    10     1   ar
    39     9     4   ar
    40    36    31    1
    41    28    29    1
    42    34    37    1
@<TRIPOS>MOLECULE
*****
 37 42 0 0 0
SMALL
GASTEIGER

@<TRIPOS>ATOM
      1 C         142.4538  142.5618  165.3151 C.ar    1  UNL1        0.1188
      2 C         143.4707  142.7201  166.4064 C.ar    1  UNL1        0.0223
      3 C         143.2149  142.1296  167.7613 C.ar    1  UNL1        0.0032
      4 C         141.9422  141.3808  168.0250 C.ar    1  UNL1        0.0189
      5 C         141.6865  140.7904  169.3799 C.ar    1  UNL1        0.0016
      6 C         140.4138  140.0416  169.6437 C.ar    1  UNL1        0.0014
      7 C         139.3968  139.8832  168.5524 C.ar    1  UNL1        0.0158
      8 C         139.6526  140.4737  167.1975 C.ar    1  UNL1        0.0625
      9 C         140.9253  141.2225  166.9338 C.ar    1  UNL1        0.0944
     10 N         141.1812  141.8130  165.5788 N.ar    1  UNL1       -0.2410
     11 N         139.7634  143.2358  158.7623 N.pl3   1  UNL1       -0.2980
     12 C         140.4090  143.9707  157.6251 C.3     1  UNL1        0.1387
     13 C         141.7356  144.6422  157.8229 C.3     1  UNL1        0.2269
     14 O         142.4167  144.5788  159.1578 O.3     1  UNL1       -0.4692
     15 C         141.7711  143.8439  160.2950 C.ar    1  UNL1        0.1907
     16 C         140.4445  143.1724  160.0972 C.ar    1  UNL1        0.1068
     17 C         139.7989  142.4375  161.2344 C.ar    1  UNL1        0.1382
     18 N         140.4800  142.3740  162.5693 N.ar    1  UNL1       -0.1592
     19 N         141.8067  143.0455  162.7671 N.ar    1  UNL1       -0.1869
     20 C         142.7096  143.1523  163.9601 C.ar    1  UNL1        0.2041
     21 N         143.9132  143.9532  163.5603 N.ar    1  UNL1       -0.1253
     22 N         143.7541  144.3414  162.1201 N.ar    1  UNL1       -0.1237
     23 C         142.4522  143.7804  161.6300 C.ar    1  UNL1        0.2218
     24 C         138.4368  142.5643  158.5645 C.3     1  UNL1        0.1232
     25 C         138.3616  141.2484  157.8486 C.3     1  UNL1        0.1636
     26 C         136.4365  140.8465  156.1508 C.3     1  UNL1        0.1742
     27 O         137.0266  140.6507  157.5159 O.3     1  UNL1       -0.3493
     28 N         138.6357  140.3154  166.1061 N.pl3   1  UNL1       -0.3315
     29 H         138.1647  141.1049  165.7539 H       1  UNL1        0.1469
     30 C         138.3365  138.9542  165.5516 C.3     1  UNL1        0.0871
     31 C         139.2285  138.3589  164.5028 C.3     1  UNL1        0.0223
     32 C         140.4780  137.6329  164.9049 C.3     1  UNL1        0.0188
     33 C         141.3700  137.0377  163.8561 C.3     1  UNL1        0.0686
     34 N         141.0126  137.1684  162.4052 N.3     1  UNL1       -0.2975
     35 C         139.7631  137.8945  162.0032 C.3     1  UNL1        0.0686
     36 C         138.8710  138.4897  163.0519 C.3     1  UNL1        0.0188
     37 H         140.9351  136.2213  162.0345 H       1  UNL1        0.1232
@<TRIPOS>BOND
     1    26    27    1
     2    27    25    1
     3    25    24    1
     4    24    11    1
     5    11    12    1
     6    12    13    1
     7    13    14    1
     8    14    15    1
     9    15    16   ar
    10    16    17   ar
    11    17    18   ar
    12    18    19   ar
    13    19    20   ar
    14    20     1    1
    15     1     2   ar
    16     2     3   ar
    17     3     4   ar
    18     4     5   ar
    19     5     6   ar
    20     6     7   ar
    21     7     8   ar
    22     8    28    1
    23    28    30    1
    24    30    31    1
    25    31    32    1
    26    32    33    1
    27    33    34    1
    28    34    35    1
    29    35    36    1
    30     8     9   ar
    31     9    10   ar
    32    20    21   ar
    33    21    22   ar
    34    22    23   ar
    35    16    11    1
    36    23    19   ar
    37    23    15   ar
    38    10     1   ar
    39     9     4   ar
    40    36    31    1
    41    28    29    1
    42    34    37    1
@<TRIPOS>MOLECULE
*****
 37 42 0 0 0
SMALL
GASTEIGER

@<TRIPOS>ATOM
      1 C         140.0354  138.9549  164.5866 C.ar    1  UNL1        0.1188
      2 C         138.7166  138.5455  165.1725 C.ar    1  UNL1        0.0223
      3 C         138.3680  138.9334  166.5789 C.ar    1  UNL1        0.0032
      4 C         139.3381  139.7306  167.3994 C.ar    1  UNL1        0.0189
      5 C         138.9894  140.1184  168.8058 C.ar    1  UNL1        0.0016
      6 C         139.9595  140.9156  169.6264 C.ar    1  UNL1        0.0014
      7 C         141.2783  141.3249  169.0406 C.ar    1  UNL1        0.0158
      8 C         141.6270  140.9371  167.6342 C.ar    1  UNL1        0.0625
      9 C         140.6569  140.1399  166.8136 C.ar    1  UNL1        0.0944
     10 N         141.0055  139.7520  165.4071 N.ar    1  UNL1       -0.2410
     11 N         138.4786  140.1882  157.7538 N.pl3   1  UNL1       -0.2980
     12 C         139.1270  139.5216  156.5769 C.3     1  UNL1        0.1387
     13 C         140.2025  138.4985  156.7930 C.3     1  UNL1        0.2269
     14 O         140.6294  138.1420  158.1860 O.3     1  UNL1       -0.4692
     15 C         139.9810  138.8085  159.3629 C.ar    1  UNL1        0.1907
     16 C         138.9056  139.8317  159.1468 C.ar    1  UNL1        0.1068
     17 C         138.2571  140.4983  160.3238 C.ar    1  UNL1        0.1382
     18 N         138.6841  140.1417  161.7168 N.ar    1  UNL1       -0.1592
     19 N         139.7595  139.1186  161.9329 N.ar    1  UNL1       -0.1869
     20 C         140.3841  138.5670  163.1802 C.ar    1  UNL1        0.2041
     21 N         141.4185  137.5596  162.7741 N.ar    1  UNL1       -0.1253
     22 N         141.4333  137.4885  161.2758 N.ar    1  UNL1       -0.1237
     23 C         140.4080  138.4520  160.7560 C.ar    1  UNL1        0.2218
     24 C         137.4032  141.2113  157.5377 C.3     1  UNL1        0.1232
     25 C         136.3361  140.9723  156.5110 C.3     1  UNL1        0.1636
     26 C         133.8971  140.2618  155.9659 C.3     1  UNL1        0.1742
     27 O         135.0777  140.2499  156.8913 O.3     1  UNL1       -0.3493
     28 N         142.9458  141.3465  167.0483 N.pl3   1  UNL1       -0.3315
     29 H         143.7425  140.7856  167.1894 H       1  UNL1        0.1469
     30 C         143.0507  142.6104  166.2473 C.3     1  UNL1        0.0871
     31 C         143.7866  142.6111  164.9403 C.3     1  UNL1        0.0223
     32 C         143.7245  143.8133  164.0453 C.3     1  UNL1        0.0188
     33 C         144.4605  143.8141  162.7383 C.3     1  UNL1        0.0686
     34 N         145.2586  142.6127  162.3262 N.3     1  UNL1       -0.2975
     35 C         145.3206  141.4105  163.2213 C.3     1  UNL1        0.0686
     36 C         144.5847  141.4098  164.5283 C.3     1  UNL1        0.0188
     37 H         146.2188  142.9292  162.1912 H       1  UNL1        0.1232
@<TRIPOS>BOND
     1    26    27    1
     2    27    25    1
     3    25    24    1
     4    24    11    1
     5    11    12    1
     6    12    13    1
     7    13    14    1
     8    14    15    1
     9    15    16   ar
    10    16    17   ar
    11    17    18   ar
    12    18    19   ar
    13    19    20   ar
    14    20     1    1
    15     1     2   ar
    16     2     3   ar
    17     3     4   ar
    18     4     5   ar
    19     5     6   ar
    20     6     7   ar
    21     7     8   ar
    22     8    28    1
    23    28    30    1
    24    30    31    1
    25    31    32    1
    26    32    33    1
    27    33    34    1
    28    34    35    1
    29    35    36    1
    30     8     9   ar
    31     9    10   ar
    32    20    21   ar
    33    21    22   ar
    34    22    23   ar
    35    16    11    1
    36    23    19   ar
    37    23    15   ar
    38    10     1   ar
    39     9     4   ar
    40    36    31    1
    41    28    29    1
    42    34    37    1
@<TRIPOS>MOLECULE
*****
 37 42 0 0 0
SMALL
GASTEIGER

@<TRIPOS>ATOM
      1 C         142.4701  142.5001  165.3185 C.ar    1  UNL1        0.1188
      2 C         143.4883  142.7016  166.4014 C.ar    1  UNL1        0.0223
      3 C         143.2337  142.1660  167.7792 C.ar    1  UNL1        0.0032
      4 C         141.9610  141.4289  168.0741 C.ar    1  UNL1        0.0189
      5 C         141.7065  140.8934  169.4519 C.ar    1  UNL1        0.0016
      6 C         140.4339  140.1563  169.7468 C.ar    1  UNL1        0.0014
      7 C         139.4157  139.9547  168.6638 C.ar    1  UNL1        0.0158
      8 C         139.6702  140.4903  167.2860 C.ar    1  UNL1        0.0625
      9 C         140.9429  141.2274  166.9911 C.ar    1  UNL1        0.0944
     10 N         141.1975  141.7630  165.6133 N.ar    1  UNL1       -0.2410
     11 N         143.1639  140.6329  158.4873 N.pl3   1  UNL1       -0.2980
     12 C         143.4365  141.5714  157.3494 C.3     1  UNL1        0.1387
     13 C         143.5859  143.0412  157.6088 C.3     1  UNL1        0.2269
     14 O         143.4627  143.5725  159.0061 O.3     1  UNL1       -0.4692
     15 C         143.1902  142.6340  160.1440 C.ar    1  UNL1        0.1907
     16 C         143.0408  141.1642  159.8846 C.ar    1  UNL1        0.1068
     17 C         142.7682  140.2257  161.0226 C.ar    1  UNL1        0.1382
     18 N         142.6451  140.7570  162.4199 N.ar    1  UNL1       -0.1592
     19 N         142.7945  142.2268  162.6793 N.ar    1  UNL1       -0.1869
     20 C         142.7247  143.0357  163.9406 C.ar    1  UNL1        0.2041
     21 N         142.9541  144.4740  163.5822 N.ar    1  UNL1       -0.1253
     22 N         143.1657  144.5542  162.0993 N.ar    1  UNL1       -0.1237
     23 C         143.0670  143.1653  161.5414 C.ar    1  UNL1        0.2218
     24 C         143.0145  139.1630  158.2279 C.3     1  UNL1        0.1232
     25 C         142.9758  138.6502  156.8188 C.3     1  UNL1        0.1636
     26 C         143.7425  136.3636  155.8526 C.3     1  UNL1        0.1742
     27 O         144.0676  137.7524  156.3172 O.3     1  UNL1       -0.3493
     28 N         138.6521  140.2888  166.2030 N.pl3   1  UNL1       -0.3315
     29 H         138.1540  141.0593  165.8460 H       1  UNL1        0.1469
     30 C         138.3928  138.9132  165.6640 C.3     1  UNL1        0.0871
     31 C         139.1964  138.3972  164.5073 C.3     1  UNL1        0.0223
     32 C         138.6614  138.5141  163.1108 C.3     1  UNL1        0.0188
     33 C         139.4651  137.9980  161.9542 C.3     1  UNL1        0.0686
     34 N         140.8037  137.3650  162.1940 N.3     1  UNL1       -0.2975
     35 C         141.3386  137.2482  163.5905 C.3     1  UNL1        0.0686
     36 C         140.5350  137.7642  164.7472 C.3     1  UNL1        0.0188
     37 H         141.4850  137.9066  161.6620 H       1  UNL1        0.1232
@<TRIPOS>BOND
     1    26    27    1
     2    27    25    1
     3    25    24    1
     4    24    11    1
     5    11    12    1
     6    12    13    1
     7    13    14    1
     8    14    15    1
     9    15    16   ar
    10    16    17   ar
    11    17    18   ar
    12    18    19   ar
    13    19    20   ar
    14    20     1    1
    15     1     2   ar
    16     2     3   ar
    17     3     4   ar
    18     4     5   ar
    19     5     6   ar
    20     6     7   ar
    21     7     8   ar
    22     8    28    1
    23    28    30    1
    24    30    31    1
    25    31    32    1
    26    32    33    1
    27    33    34    1
    28    34    35    1
    29    35    36    1
    30     8     9   ar
    31     9    10   ar
    32    20    21   ar
    33    21    22   ar
    34    22    23   ar
    35    16    11    1
    36    23    19   ar
    37    23    15   ar
    38    10     1   ar
    39     9     4   ar
    40    36    31    1
    41    28    29    1
    42    34    37    1
@<TRIPOS>MOLECULE
*****
 37 42 0 0 0
SMALL
GASTEIGER

@<TRIPOS>ATOM
      1 C         143.0630  141.7359  165.5832 C.ar    1  UNL1        0.1188
      2 C         143.5929  142.5327  166.7384 C.ar    1  UNL1        0.0223
      3 C         142.8993  142.4792  168.0673 C.ar    1  UNL1        0.0032
      4 C         141.6759  141.6289  168.2410 C.ar    1  UNL1        0.0189
      5 C         140.9823  141.5754  169.5700 C.ar    1  UNL1        0.0016
      6 C         139.7588  140.7251  169.7437 C.ar    1  UNL1        0.0014
      7 C         139.2290  139.9283  168.5886 C.ar    1  UNL1        0.0158
      8 C         139.9225  139.9818  167.2597 C.ar    1  UNL1        0.0625
      9 C         141.1460  140.8321  167.0859 C.ar    1  UNL1        0.0944
     10 N         141.8397  140.8857  165.7569 N.ar    1  UNL1       -0.2410
     11 N         142.1838  143.4365  158.7299 N.pl3   1  UNL1       -0.2980
     12 C         143.2304  143.3232  157.6614 C.3     1  UNL1        0.1387
     13 C         144.5995  142.8147  158.0034 C.3     1  UNL1        0.2269
     14 O         144.9219  142.4194  159.4140 O.3     1  UNL1       -0.4692
     15 C         143.8754  142.5327  160.4825 C.ar    1  UNL1        0.1907
     16 C         142.5063  143.0412  160.1405 C.ar    1  UNL1        0.1068
     17 C         141.4597  143.1545  161.2091 C.ar    1  UNL1        0.1382
     18 N         141.7822  142.7593  162.6196 N.ar    1  UNL1       -0.1592
     19 N         143.1513  142.2507  162.9617 N.ar    1  UNL1       -0.1869
     20 C         143.7567  141.7894  164.2542 C.ar    1  UNL1        0.2041
     21 N         145.1774  141.3911  163.9845 N.ar    1  UNL1       -0.1253
     22 N         145.4501  141.6062  162.5253 N.ar    1  UNL1       -0.1237
     23 C         144.1978  142.1374  161.8932 C.ar    1  UNL1        0.2218
     24 C         140.8147  143.9450  158.3879 C.3     1  UNL1        0.1232
     25 C         140.4997  145.4047  158.5297 C.3     1  UNL1        0.1636
     26 C         140.8814  145.7375  155.9814 C.3     1  UNL1        0.1742
     27 O         140.4885  146.2906  157.3193 O.3     1  UNL1       -0.3493
     28 N         139.3927  139.1851  166.1044 N.pl3   1  UNL1       -0.3315
     29 H         139.9002  138.4126  165.7653 H       1  UNL1        0.1469
     30 C         138.0897  139.5653  165.4660 C.3     1  UNL1        0.0871
     31 C         138.0587  140.6086  164.3886 C.3     1  UNL1        0.0223
     32 C         138.2204  142.0572  164.7425 C.3     1  UNL1        0.0188
     33 C         138.1893  143.1005  163.6652 C.3     1  UNL1        0.0686
     34 N         137.9965  142.6951  162.2340 N.3     1  UNL1       -0.2975
     35 C         137.8348  141.2464  161.8801 C.3     1  UNL1        0.0686
     36 C         137.8659  140.2031  162.9574 C.3     1  UNL1        0.0188
     37 H         138.8092  143.0349  161.7196 H       1  UNL1        0.1232
@<TRIPOS>BOND
     1    26    27    1
     2    27    25    1
     3    25    24    1
     4    24    11    1
     5    11    12    1
     6    12    13    1
     7    13    14    1
     8    14    15    1
     9    15    16   ar
    10    16    17   ar
    11    17    18   ar
    12    18    19   ar
    13    19    20   ar
    14    20     1    1
    15     1     2   ar
    16     2     3   ar
    17     3     4   ar
    18     4     5   ar
    19     5     6   ar
    20     6     7   ar
    21     7     8   ar
    22     8    28    1
    23    28    30    1
    24    30    31    1
    25    31    32    1
    26    32    33    1
    27    33    34    1
    28    34    35    1
    29    35    36    1
    30     8     9   ar
    31     9    10   ar
    32    20    21   ar
    33    21    22   ar
    34    22    23   ar
    35    16    11    1
    36    23    19   ar
    37    23    15   ar
    38    10     1   ar
    39     9     4   ar
    40    36    31    1
    41    28    29    1
    42    34    37    1
@<TRIPOS>MOLECULE
*****
 37 42 0 0 0
SMALL
GASTEIGER

@<TRIPOS>ATOM
      1 C         139.7856  142.3117  163.4468 C.ar    1  UNL1        0.1188
      2 C         140.7581  143.3067  164.0074 C.ar    1  UNL1        0.0223
      3 C         141.1634  143.2286  165.4495 C.ar    1  UNL1        0.0032
      4 C         140.5964  142.1554  166.3308 C.ar    1  UNL1        0.0189
      5 C         141.0018  142.0773  167.7729 C.ar    1  UNL1        0.0016
      6 C         140.4347  141.0042  168.6543 C.ar    1  UNL1        0.0014
      7 C         139.4623  140.0092  168.0936 C.ar    1  UNL1        0.0158
      8 C         139.0569  140.0873  166.6516 C.ar    1  UNL1        0.0625
      9 C         139.6239  141.1604  165.7702 C.ar    1  UNL1        0.0944
     10 N         139.2186  141.2386  164.3281 N.ar    1  UNL1       -0.2410
     11 N         141.4775  140.1080  156.8959 N.pl3   1  UNL1       -0.2980
     12 C         140.7365  140.4569  155.6392 C.3     1  UNL1        0.1387
     13 C         139.5272  141.3420  155.7027 C.3     1  UNL1        0.2269
     14 O         139.0589  141.8784  157.0229 O.3     1  UNL1       -0.4692
     15 C         139.7998  141.5296  158.2796 C.ar    1  UNL1        0.1907
     16 C         141.0091  140.6444  158.2160 C.ar    1  UNL1        0.1068
     17 C         141.7501  140.2956  159.4728 C.ar    1  UNL1        0.1382
     18 N         141.2817  140.8319  160.7930 N.ar    1  UNL1       -0.1592
     19 N         140.0724  141.7171  160.8565 N.ar    1  UNL1       -0.1869
     20 C         139.3802  142.3899  162.0046 C.ar    1  UNL1        0.2041
     21 N         138.2114  143.1545  161.4575 N.ar    1  UNL1       -0.1253
     22 N         138.1813  142.9543  159.9712 N.ar    1  UNL1       -0.1237
     23 C         139.3315  142.0659  159.5998 C.ar    1  UNL1        0.2218
     24 C         142.6868  139.2229  156.8324 C.3     1  UNL1        0.1232
     25 C         144.0139  139.7940  156.4294 C.3     1  UNL1        0.1636
     26 C         144.8605  141.8679  157.7455 C.3     1  UNL1        0.1742
     27 O         144.9172  140.3955  157.4649 O.3     1  UNL1       -0.3493
     28 N         138.0844  139.0923  166.0908 N.pl3   1  UNL1       -0.3315
     29 H         137.1213  139.2960  166.0829 H       1  UNL1        0.1469
     30 C         138.5795  137.7870  165.5422 C.3     1  UNL1        0.0871
     31 C         139.3625  137.7598  164.2630 C.3     1  UNL1        0.0223
     32 C         138.6588  137.9289  162.9492 C.3     1  UNL1        0.0188
     33 C         139.4417  137.9016  161.6700 C.3     1  UNL1        0.0686
     34 N         140.9284  137.7053  161.7047 N.3     1  UNL1       -0.2975
     35 C         141.6321  137.5362  163.0186 C.3     1  UNL1        0.0686
     36 C         140.8491  137.5635  164.2978 C.3     1  UNL1        0.0188
     37 H         141.3435  138.5190  161.2509 H       1  UNL1        0.1232
@<TRIPOS>BOND
     1    26    27    1
     2    27    25    1
     3    25    24    1
     4    24    11    1
     5    11    12    1
     6    12    13    1
     7    13    14    1
     8    14    15    1
     9    15    16   ar
    10    16    17   ar
    11    17    18   ar
    12    18    19   ar
    13    19    20   ar
    14    20     1    1
    15     1     2   ar
    16     2     3   ar
    17     3     4   ar
    18     4     5   ar
    19     5     6   ar
    20     6     7   ar
    21     7     8   ar
    22     8    28    1
    23    28    30    1
    24    30    31    1
    25    31    32    1
    26    32    33    1
    27    33    34    1
    28    34    35    1
    29    35    36    1
    30     8     9   ar
    31     9    10   ar
    32    20    21   ar
    33    21    22   ar
    34    22    23   ar
    35    16    11    1
    36    23    19   ar
    37    23    15   ar
    38    10     1   ar
    39     9     4   ar
    40    36    31    1
    41    28    29    1
    42    34    37    1
@<TRIPOS>MOLECULE
*****
 37 42 0 0 0
SMALL
GASTEIGER

@<TRIPOS>ATOM
      1 C         142.9843  142.1582  164.8057 C.ar    1  UNL1        0.1188
      2 C         143.7055  142.7032  166.0027 C.ar    1  UNL1        0.0223
      3 C         143.1870  142.4235  167.3821 C.ar    1  UNL1        0.0032
      4 C         141.9473  141.5990  167.5646 C.ar    1  UNL1        0.0189
      5 C         141.4288  141.3194  168.9441 C.ar    1  UNL1        0.0016
      6 C         140.1892  140.4948  169.1265 C.ar    1  UNL1        0.0014
      7 C         139.4680  139.9498  167.9295 C.ar    1  UNL1        0.0158
      8 C         139.9864  140.2294  166.5500 C.ar    1  UNL1        0.0625
      9 C         141.2261  141.0540  166.3676 C.ar    1  UNL1        0.0944
     10 N         141.7447  141.3336  164.9881 N.ar    1  UNL1       -0.2410
     11 N         143.3216  139.5770  158.1833 N.pl3   1  UNL1       -0.2980
     12 C         143.9948  140.2432  157.0201 C.3     1  UNL1        0.1387
     13 C         144.6728  141.5684  157.2045 C.3     1  UNL1        0.2269
     14 O         144.6776  142.2275  158.5519 O.3     1  UNL1       -0.4692
     15 C         144.0044  141.5613  159.7150 C.ar    1  UNL1        0.1907
     16 C         143.3264  140.2360  159.5307 C.ar    1  UNL1        0.1068
     17 C         142.6531  139.5698  160.6939 C.ar    1  UNL1        0.1382
     18 N         142.6579  140.2289  162.0413 N.ar    1  UNL1       -0.1592
     19 N         143.3359  141.5541  162.2256 N.ar    1  UNL1       -0.1869
     20 C         143.5028  142.4378  163.4261 C.ar    1  UNL1        0.2041
     21 N         144.2792  143.6501  163.0049 N.ar    1  UNL1       -0.1253
     22 N         144.5921  143.5157  161.5441 N.ar    1  UNL1       -0.1237
     23 C         144.0092  142.2203  161.0625 C.ar    1  UNL1        0.2218
     24 C         142.6435  138.2517  157.9989 C.3     1  UNL1        0.1232
     25 C         142.9997  137.3834  156.8289 C.3     1  UNL1        0.1636
     26 C         143.3667  134.8117  156.8738 C.3     1  UNL1        0.1742
     27 O         142.4502  135.9909  156.7336 O.3     1  UNL1       -0.3493
     28 N         139.2653  139.6845  165.3529 N.pl3   1  UNL1       -0.3315
     29 H         139.6524  138.9362  164.8435 H       1  UNL1        0.1469
     30 C         137.9544  140.2797  164.9320 C.3     1  UNL1        0.0871
     31 C         137.9280  141.4376  163.9789 C.3     1  UNL1        0.0223
     32 C         137.8311  142.8393  164.5041 C.3     1  UNL1        0.0188
     33 C         137.8047  143.9973  163.5510 C.3     1  UNL1        0.0686
     34 N         137.8752  143.7536  162.0726 N.3     1  UNL1       -0.2975
     35 C         137.9720  142.3518  161.5474 C.3     1  UNL1        0.0686
     36 C         137.9984  141.1938  162.5005 C.3     1  UNL1        0.0188
     37 H         138.6958  144.2535  161.7305 H       1  UNL1        0.1232
@<TRIPOS>BOND
     1    26    27    1
     2    27    25    1
     3    25    24    1
     4    24    11    1
     5    11    12    1
     6    12    13    1
     7    13    14    1
     8    14    15    1
     9    15    16   ar
    10    16    17   ar
    11    17    18   ar
    12    18    19   ar
    13    19    20   ar
    14    20     1    1
    15     1     2   ar
    16     2     3   ar
    17     3     4   ar
    18     4     5   ar
    19     5     6   ar
    20     6     7   ar
    21     7     8   ar
    22     8    28    1
    23    28    30    1
    24    30    31    1
    25    31    32    1
    26    32    33    1
    27    33    34    1
    28    34    35    1
    29    35    36    1
    30     8     9   ar
    31     9    10   ar
    32    20    21   ar
    33    21    22   ar
    34    22    23   ar
    35    16    11    1
    36    23    19   ar
    37    23    15   ar
    38    10     1   ar
    39     9     4   ar
    40    36    31    1
    41    28    29    1
    42    34    37    1
