@<TRIPOS>MOLECULE
*****
 36 39 0 0 0
SMALL
GASTEIGER

@<TRIPOS>ATOM
      1 C         141.9009  138.9655  161.5832 C.ar    1  UNL1        0.2204
      2 N         142.9994  138.3086  160.8011 N.ar    1  UNL1       -0.2089
      3 C         142.7801  137.9412  159.3635 C.ar    1  UNL1        0.1402
      4 C         141.4624  138.2307  158.7078 C.ar    1  UNL1        0.1773
      5 C         140.3639  138.8876  159.4900 C.ar    1  UNL1        0.1402
      6 N         140.5831  139.2550  160.9277 N.ar    1  UNL1       -0.2089
      7 C         141.0544  137.0814  163.7589 C.3     1  UNL1        0.0233
      8 C         141.6969  138.3909  164.1088 C.3     1  UNL1        0.0955
      9 C         141.9162  138.7584  165.5464 C.3     1  UNL1        0.1149
     10 N         142.5587  140.0679  165.8962 N.pl3   1  UNL1       -0.2590
     11 C         142.9819  141.0099  164.8084 C.3     1  UNL1        0.1166
     12 C         142.7626  140.6425  163.3708 C.3     1  UNL1        0.1151
     13 N         142.1201  139.3330  163.0210 N.pl3   1  UNL1       -0.2764
     14 C         142.7780  140.4353  167.3340 C.ar    1  UNL1        0.3120
     15 N         142.8289  139.4809  168.4900 N.ar    1  UNL1       -0.0922
     16 N         143.0672  140.2774  169.7385 N.ar    1  UNL1       -0.1018
     17 C         143.1636  141.7241  169.3541 C.ar    1  UNL1        0.3233
     18 O         142.9848  141.8217  167.8680 O.2     1  UNL1       -0.4012
     19 C         143.3976  142.8718  170.2912 C.3     1  UNL1        0.4711
     20 F         143.6316  144.0194  171.2283 F       1  UNL1       -0.1619
     21 F         144.8791  142.6980  170.1340 F       1  UNL1       -0.1619
     22 F         141.9160  143.0455  170.4484 F       1  UNL1       -0.1619
     23 O         141.2432  137.8632  157.2702 O.3     1  UNL1       -0.4675
     24 C         142.3404  137.2030  156.4891 C.3     1  UNL1        0.2328
     25 C         142.3402  135.7141  156.3072 C.ar    1  UNL1        0.0309
     26 C         143.2628  134.8586  157.1239 C.ar    1  UNL1        0.0013
     27 C         143.2626  133.3696  156.9419 C.ar    1  UNL1        0.0182
     28 C         142.3399  132.7362  155.9432 C.ar    1  UNL1        0.1064
     29 C         141.4173  133.5917  155.1265 C.ar    1  UNL1        0.0284
     30 C         141.4175  135.0806  155.3084 C.ar    1  UNL1        0.0692
     31 S         142.3397  131.2473  155.7612 S.O2    1  UNL1        0.0105
     32 C         142.3395  129.7584  155.5792 C.3     1  UNL1        0.1816
     33 O         141.7344  131.4139  154.3990 O.2     1  UNL1       -0.1686
     34 O         142.9450  131.0808  157.1235 O.2     1  UNL1       -0.1686
     35 C         140.4949  135.9361  154.4917 C.1     1  UNL1        0.1003
     36 N         139.5724  136.7916  153.6750 N.1     1  UNL1       -0.1908
@<TRIPOS>BOND
     1     8     7    1
     2     8     9    1
     3     9    10    1
     4    10    14    1
     5    14    15   ar
     6    15    16   ar
     7    16    17   ar
     8    17    19    1
     9    19    20    1
    10    19    21    1
    11    19    22    1
    12    17    18   ar
    13    10    11    1
    14    11    12    1
    15    12    13    1
    16    13     1    1
    17     1     2   ar
    18     2     3   ar
    19     3     4   ar
    20     4    23    1
    21    23    24    1
    22    24    25    1
    23    25    26   ar
    24    26    27   ar
    25    27    28   ar
    26    28    31    1
    27    31    32    1
    28    31    33    2
    29    31    34    2
    30    28    29   ar
    31    29    30   ar
    32    30    35    1
    33    35    36    3
    34     4     5   ar
    35     5     6   ar
    36    13     8    1
    37     6     1   ar
    38    18    14   ar
    39    30    25   ar
@<TRIPOS>MOLECULE
*****
 36 39 0 0 0
SMALL
GASTEIGER

@<TRIPOS>ATOM
      1 C         139.2330  142.6813  159.9281 C.ar    1  UNL1        0.2204
      2 N         140.1396  141.5018  160.1203 N.ar    1  UNL1       -0.2089
      3 C         139.9199  140.5669  161.2725 C.ar    1  UNL1        0.1402
      4 C         138.7936  140.8115  162.2326 C.ar    1  UNL1        0.1773
      5 C         137.8870  141.9909  162.0404 C.ar    1  UNL1        0.1402
      6 N         138.1068  142.9259  160.8881 N.ar    1  UNL1       -0.2089
      7 C         140.7401  145.2423  160.3405 C.3     1  UNL1        0.0233
      8 C         140.2063  144.8967  158.9820 C.3     1  UNL1        0.0955
      9 C         140.4260  145.8315  157.8298 C.3     1  UNL1        0.1149
     10 N         139.8921  145.4859  156.4713 N.pl3   1  UNL1       -0.2590
     11 C         139.1386  144.2055  156.2650 C.3     1  UNL1        0.1166
     12 C         138.9189  143.2706  157.4173 C.3     1  UNL1        0.1151
     13 N         139.4527  143.6162  158.7758 N.pl3   1  UNL1       -0.2764
     14 C         140.1118  146.4208  155.3190 C.ar    1  UNL1        0.3120
     15 N         140.9175  146.1288  154.0879 N.ar    1  UNL1       -0.0922
     16 N         140.8680  147.3394  153.2036 N.ar    1  UNL1       -0.1018
     17 C         140.0318  148.3797  153.8881 C.ar    1  UNL1        0.3233
     18 O         139.5644  147.8119  155.1955 O.2     1  UNL1       -0.4012
     19 C         139.7180  149.7475  153.3584 C.3     1  UNL1        0.4711
     20 F         139.4042  151.1152  152.8286 F       1  UNL1       -0.1619
     21 F         139.7891  150.3028  154.7499 F       1  UNL1       -0.1619
     22 F         139.6468  149.1921  151.9668 F       1  UNL1       -0.1619
     23 O         138.5740  139.8766  163.3848 O.3     1  UNL1       -0.4675
     24 C         138.1700  140.4185  164.7239 C.3     1  UNL1        0.2328
     25 C         139.1994  140.6064  165.7985 C.ar    1  UNL1        0.0309
     26 C         140.2985  141.6109  165.6168 C.ar    1  UNL1        0.0013
     27 C         141.3280  141.7988  166.6916 C.ar    1  UNL1        0.0182
     28 C         141.2582  140.9823  167.9479 C.ar    1  UNL1        0.1064
     29 C         140.1591  139.9779  168.1296 C.ar    1  UNL1        0.0284
     30 C         139.1297  139.7900  167.0550 C.ar    1  UNL1        0.0692
     31 S         142.2877  141.1703  169.0226 S.O2    1  UNL1        0.0105
     32 C         143.3172  141.3582  170.0973 C.3     1  UNL1        0.1816
     33 O         142.9679  139.9046  168.5923 O.2     1  UNL1       -0.1686
     34 O         141.6074  142.4360  169.4528 O.2     1  UNL1       -0.1686
     35 C         138.0305  138.7855  167.2367 C.1     1  UNL1        0.1003
     36 N         136.9314  137.7811  167.4184 N.1     1  UNL1       -0.1908
@<TRIPOS>BOND
     1     8     7    1
     2     8     9    1
     3     9    10    1
     4    10    14    1
     5    14    15   ar
     6    15    16   ar
     7    16    17   ar
     8    17    19    1
     9    19    20    1
    10    19    21    1
    11    19    22    1
    12    17    18   ar
    13    10    11    1
    14    11    12    1
    15    12    13    1
    16    13     1    1
    17     1     2   ar
    18     2     3   ar
    19     3     4   ar
    20     4    23    1
    21    23    24    1
    22    24    25    1
    23    25    26   ar
    24    26    27   ar
    25    27    28   ar
    26    28    31    1
    27    31    32    1
    28    31    33    2
    29    31    34    2
    30    28    29   ar
    31    29    30   ar
    32    30    35    1
    33    35    36    3
    34     4     5   ar
    35     5     6   ar
    36    13     8    1
    37     6     1   ar
    38    18    14   ar
    39    30    25   ar
@<TRIPOS>MOLECULE
*****
 36 39 0 0 0
SMALL
GASTEIGER

@<TRIPOS>ATOM
      1 C         142.6443  139.6284  161.7660 C.ar    1  UNL1        0.2204
      2 N         142.8726  138.1561  161.5926 N.ar    1  UNL1       -0.2089
      3 C         143.0260  137.5777  160.2171 C.ar    1  UNL1        0.1402
      4 C         142.9511  138.4717  159.0150 C.ar    1  UNL1        0.1773
      5 C         142.7228  139.9441  159.1883 C.ar    1  UNL1        0.1402
      6 N         142.5694  140.5224  160.5639 N.ar    1  UNL1       -0.2089
      7 C         145.0580  140.5865  163.2682 C.3     1  UNL1        0.0233
      8 C         143.6977  140.6858  163.8926 C.3     1  UNL1        0.0955
      9 C         143.5443  141.2640  165.2681 C.3     1  UNL1        0.1149
     10 N         142.1841  141.3633  165.8925 N.pl3   1  UNL1       -0.2590
     11 C         140.9773  140.8843  165.1414 C.3     1  UNL1        0.1166
     12 C         141.1307  140.3060  163.7660 C.3     1  UNL1        0.1151
     13 N         142.4909  140.2068  163.1415 N.pl3   1  UNL1       -0.2764
     14 C         142.0307  141.9417  167.2681 C.ar    1  UNL1        0.3120
     15 N         143.1477  142.3327  168.1897 N.ar    1  UNL1       -0.0922
     16 N         142.5407  142.8632  169.4547 N.ar    1  UNL1       -0.1018
     17 C         141.0485  142.8000  169.3148 C.ar    1  UNL1        0.3233
     18 O         140.7334  142.2305  167.9634 O.2     1  UNL1       -0.4012
     19 C         140.0474  143.2308  170.3454 C.3     1  UNL1        0.4711
     20 F         139.0462  143.6615  171.3760 F       1  UNL1       -0.1619
     21 F         140.3600  144.6675  170.0486 F       1  UNL1       -0.1619
     22 F         139.7348  141.7940  170.6422 F       1  UNL1       -0.1619
     23 O         143.1045  137.8934  157.6395 O.3     1  UNL1       -0.4675
     24 C         142.1461  136.8461  157.1551 C.3     1  UNL1        0.2328
     25 C         142.6521  135.4885  156.7667 C.ar    1  UNL1        0.0309
     26 C         143.5292  134.7174  157.7081 C.ar    1  UNL1        0.0013
     27 C         144.0352  133.3598  157.3196 C.ar    1  UNL1        0.0182
     28 C         143.6642  132.7733  155.9898 C.ar    1  UNL1        0.1064
     29 C         142.7872  133.5444  155.0485 C.ar    1  UNL1        0.0284
     30 C         142.2811  134.9020  155.4368 C.ar    1  UNL1        0.0692
     31 S         144.1702  131.4157  155.6014 S.O2    1  UNL1        0.0105
     32 C         144.6764  130.0581  155.2130 C.3     1  UNL1        0.1816
     33 O         145.4764  131.7090  156.2782 O.2     1  UNL1       -0.1686
     34 O         142.8641  131.1225  154.9247 O.2     1  UNL1       -0.1686
     35 C         141.4041  135.6731  154.4955 C.1     1  UNL1        0.1003
     36 N         140.5271  136.4442  153.5541 N.1     1  UNL1       -0.1908
@<TRIPOS>BOND
     1     8     7    1
     2     8     9    1
     3     9    10    1
     4    10    14    1
     5    14    15   ar
     6    15    16   ar
     7    16    17   ar
     8    17    19    1
     9    19    20    1
    10    19    21    1
    11    19    22    1
    12    17    18   ar
    13    10    11    1
    14    11    12    1
    15    12    13    1
    16    13     1    1
    17     1     2   ar
    18     2     3   ar
    19     3     4   ar
    20     4    23    1
    21    23    24    1
    22    24    25    1
    23    25    26   ar
    24    26    27   ar
    25    27    28   ar
    26    28    31    1
    27    31    32    1
    28    31    33    2
    29    31    34    2
    30    28    29   ar
    31    29    30   ar
    32    30    35    1
    33    35    36    3
    34     4     5   ar
    35     5     6   ar
    36    13     8    1
    37     6     1   ar
    38    18    14   ar
    39    30    25   ar
@<TRIPOS>MOLECULE
*****
 36 39 0 0 0
SMALL
GASTEIGER

@<TRIPOS>ATOM
      1 C         140.8910  138.4815  160.8142 C.ar    1  UNL1        0.2204
      2 N         139.8314  138.5996  159.7591 N.ar    1  UNL1       -0.2089
      3 C         140.1773  138.3624  158.3189 C.ar    1  UNL1        0.1402
      4 C         141.5829  138.0071  157.9339 C.ar    1  UNL1        0.1773
      5 C         142.6425  137.8891  158.9890 C.ar    1  UNL1        0.1402
      6 N         142.2965  138.1263  160.4292 N.ar    1  UNL1       -0.2089
      7 C         140.9959  141.2586  161.9444 C.3     1  UNL1        0.0233
      8 C         140.5975  140.1072  162.8195 C.3     1  UNL1        0.0955
      9 C         140.2515  140.3444  164.2596 C.3     1  UNL1        0.1149
     10 N         139.8531  139.1931  165.1347 N.pl3   1  UNL1       -0.2590
     11 C         139.8007  137.8046  164.5696 C.3     1  UNL1        0.1166
     12 C         140.1466  137.5675  163.1295 C.3     1  UNL1        0.1151
     13 N         140.5450  138.7188  162.2544 N.pl3   1  UNL1       -0.2764
     14 C         139.5071  139.4303  166.5749 C.ar    1  UNL1        0.3120
     15 N         138.2877  138.9207  167.2842 N.ar    1  UNL1       -0.0922
     16 N         138.3468  139.3942  168.7062 N.ar    1  UNL1       -0.1018
     17 C         139.6028  140.1966  168.8758 C.ar    1  UNL1        0.3233
     18 O         140.3199  140.2189  167.5585 O.2     1  UNL1       -0.4012
     19 C         140.0612  140.8601  170.1406 C.3     1  UNL1        0.4711
     20 F         140.5196  141.5236  171.4053 F       1  UNL1       -0.1619
     21 F         140.3854  139.5182  170.7271 F       1  UNL1       -0.1619
     22 F         139.7370  142.2021  169.5540 F       1  UNL1       -0.1619
     23 O         141.9288  137.7699  156.4937 O.3     1  UNL1       -0.4675
     24 C         143.1195  136.9303  156.1368 C.3     1  UNL1        0.2328
     25 C         142.9919  135.4372  156.0716 C.ar    1  UNL1        0.0309
     26 C         143.3476  134.6011  157.2651 C.ar    1  UNL1        0.0013
     27 C         143.2200  133.1080  157.1999 C.ar    1  UNL1        0.0182
     28 C         142.7366  132.4509  155.9411 C.ar    1  UNL1        0.1064
     29 C         142.3808  133.2869  154.7476 C.ar    1  UNL1        0.0284
     30 C         142.5084  134.7800  154.8128 C.ar    1  UNL1        0.0692
     31 S         142.6089  130.9578  155.8759 S.O2    1  UNL1        0.0105
     32 C         142.4813  129.4646  155.8106 C.3     1  UNL1        0.1816
     33 O         142.1598  131.0585  154.4483 O.2     1  UNL1       -0.1686
     34 O         143.0581  130.8570  157.3035 O.2     1  UNL1       -0.1686
     35 C         142.1527  135.6160  153.6193 C.1     1  UNL1        0.1003
     36 N         141.7969  136.4520  152.4257 N.1     1  UNL1       -0.1908
@<TRIPOS>BOND
     1     8     7    1
     2     8     9    1
     3     9    10    1
     4    10    14    1
     5    14    15   ar
     6    15    16   ar
     7    16    17   ar
     8    17    19    1
     9    19    20    1
    10    19    21    1
    11    19    22    1
    12    17    18   ar
    13    10    11    1
    14    11    12    1
    15    12    13    1
    16    13     1    1
    17     1     2   ar
    18     2     3   ar
    19     3     4   ar
    20     4    23    1
    21    23    24    1
    22    24    25    1
    23    25    26   ar
    24    26    27   ar
    25    27    28   ar
    26    28    31    1
    27    31    32    1
    28    31    33    2
    29    31    34    2
    30    28    29   ar
    31    29    30   ar
    32    30    35    1
    33    35    36    3
    34     4     5   ar
    35     5     6   ar
    36    13     8    1
    37     6     1   ar
    38    18    14   ar
    39    30    25   ar
@<TRIPOS>MOLECULE
*****
 36 39 0 0 0
SMALL
GASTEIGER

@<TRIPOS>ATOM
      1 C         139.3342  141.5581  159.6568 C.ar    1  UNL1        0.2204
      2 N         140.4342  140.5396  159.6041 N.ar    1  UNL1       -0.2089
      3 C         140.3659  139.3166  160.4699 C.ar    1  UNL1        0.1402
      4 C         139.1977  139.1121  161.3884 C.ar    1  UNL1        0.1773
      5 C         138.0978  140.1306  161.4410 C.ar    1  UNL1        0.1402
      6 N         138.1660  141.3536  160.5752 N.ar    1  UNL1       -0.2089
      7 C         140.5591  144.0820  160.7196 C.3     1  UNL1        0.0233
      8 C         140.0149  144.0430  159.3224 C.3     1  UNL1        0.0955
      9 C         140.0832  145.2660  158.4565 C.3     1  UNL1        0.1149
     10 N         139.5390  145.2270  157.0593 N.pl3   1  UNL1       -0.2590
     11 C         138.9266  143.9651  156.5278 C.3     1  UNL1        0.1166
     12 C         138.8584  142.7422  157.3936 C.3     1  UNL1        0.1151
     13 N         139.4025  142.7811  158.7909 N.pl3   1  UNL1       -0.2764
     14 C         139.6073  146.4501  156.1934 C.ar    1  UNL1        0.3120
     15 N         140.3750  146.5810  154.9115 N.ar    1  UNL1       -0.0922
     16 N         140.1621  147.9687  154.3834 N.ar    1  UNL1       -0.1018
     17 C         139.2627  148.6954  155.3389 C.ar    1  UNL1        0.3233
     18 O         138.9198  147.7568  156.4576 O.2     1  UNL1       -0.4012
     19 C         138.7893  150.1120  155.2002 C.3     1  UNL1        0.4711
     20 F         138.3158  151.5285  155.0614 F       1  UNL1       -0.1619
     21 F         139.6425  150.2774  153.9776 F       1  UNL1       -0.1619
     22 F         137.9360  149.9466  156.4227 F       1  UNL1       -0.1619
     23 O         139.1294  137.8891  162.2541 O.3     1  UNL1       -0.4675
     24 C         140.1623  137.6651  163.3186 C.3     1  UNL1        0.2328
     25 C         140.0279  138.3449  164.6489 C.ar    1  UNL1        0.0309
     26 C         138.7039  138.3588  165.3537 C.ar    1  UNL1        0.0013
     27 C         138.5696  139.0387  166.6841 C.ar    1  UNL1        0.0182
     28 C         139.7593  139.7045  167.3096 C.ar    1  UNL1        0.1064
     29 C         141.0833  139.6906  166.6048 C.ar    1  UNL1        0.0284
     30 C         141.2176  139.0108  165.2744 C.ar    1  UNL1        0.0692
     31 S         139.6249  140.3843  168.6399 S.O2    1  UNL1        0.0105
     32 C         139.4905  141.0641  169.9703 C.3     1  UNL1        0.1816
     33 O         138.4726  139.4871  168.9820 O.2     1  UNL1       -0.1686
     34 O         140.7772  141.2816  168.2978 O.2     1  UNL1       -0.1686
     35 C         142.5417  138.9968  164.5696 C.1     1  UNL1        0.1003
     36 N         143.8657  138.9829  163.8648 N.1     1  UNL1       -0.1908
@<TRIPOS>BOND
     1     8     7    1
     2     8     9    1
     3     9    10    1
     4    10    14    1
     5    14    15   ar
     6    15    16   ar
     7    16    17   ar
     8    17    19    1
     9    19    20    1
    10    19    21    1
    11    19    22    1
    12    17    18   ar
    13    10    11    1
    14    11    12    1
    15    12    13    1
    16    13     1    1
    17     1     2   ar
    18     2     3   ar
    19     3     4   ar
    20     4    23    1
    21    23    24    1
    22    24    25    1
    23    25    26   ar
    24    26    27   ar
    25    27    28   ar
    26    28    31    1
    27    31    32    1
    28    31    33    2
    29    31    34    2
    30    28    29   ar
    31    29    30   ar
    32    30    35    1
    33    35    36    3
    34     4     5   ar
    35     5     6   ar
    36    13     8    1
    37     6     1   ar
    38    18    14   ar
    39    30    25   ar
@<TRIPOS>MOLECULE
*****
 36 39 0 0 0
SMALL
GASTEIGER

@<TRIPOS>ATOM
      1 C         140.0226  143.5442  160.8661 C.ar    1  UNL1        0.2204
      2 N         139.6423  142.8514  159.5912 N.ar    1  UNL1       -0.2089
      3 C         139.8161  143.5519  158.2763 C.ar    1  UNL1        0.1402
      4 C         140.3703  144.9453  158.2362 C.ar    1  UNL1        0.1773
      5 C         140.7507  145.6380  159.5111 C.ar    1  UNL1        0.1402
      6 N         140.5768  144.9375  160.8261 N.ar    1  UNL1       -0.2089
      7 C         137.9868  144.5333  162.8351 C.3     1  UNL1        0.0233
      8 C         138.8309  143.3382  163.1655 C.3     1  UNL1        0.0955
      9 C         138.6570  142.6376  164.4804 C.3     1  UNL1        0.1149
     10 N         139.5011  141.4425  164.8108 N.pl3   1  UNL1       -0.2590
     11 C         140.5190  140.9479  163.8264 C.3     1  UNL1        0.1166
     12 C         140.6928  141.6485  162.5115 C.3     1  UNL1        0.1151
     13 N         139.8488  142.8436  162.1811 N.pl3   1  UNL1       -0.2764
     14 C         139.3273  140.7419  166.1258 C.ar    1  UNL1        0.3120
     15 N         138.4580  139.5461  166.3796 N.ar    1  UNL1       -0.0922
     16 N         138.5857  139.1794  167.8284 N.ar    1  UNL1       -0.1018
     17 C         139.5339  140.1485  168.4701 C.ar    1  UNL1        0.3233
     18 O         139.9922  141.1142  167.4178 O.2     1  UNL1       -0.4012
     19 C         139.9505  140.1515  169.9111 C.3     1  UNL1        0.4711
     20 F         140.3672  140.1544  171.3520 F       1  UNL1       -0.1619
     21 F         141.3802  140.3377  169.4973 F       1  UNL1       -0.1619
     22 F         138.5208  139.9652  170.3249 F       1  UNL1       -0.1619
     23 O         140.5442  145.6457  156.9213 O.3     1  UNL1       -0.4675
     24 C         139.3448  146.1564  156.1792 C.3     1  UNL1        0.2328
     25 C         139.2431  147.6113  155.8288 C.ar    1  UNL1        0.0309
     26 C         138.5058  148.5515  156.7356 C.ar    1  UNL1        0.0013
     27 C         138.4042  150.0065  156.3851 C.ar    1  UNL1        0.0182
     28 C         139.0399  150.5212  155.1278 C.ar    1  UNL1        0.1064
     29 C         139.7772  149.5810  154.2209 C.ar    1  UNL1        0.0284
     30 C         139.8789  148.1261  154.5714 C.ar    1  UNL1        0.0692
     31 S         138.9382  151.9761  154.7773 S.O2    1  UNL1        0.0105
     32 C         138.8366  153.4311  154.4268 C.3     1  UNL1        0.1816
     33 O         138.9473  152.3280  156.2354 O.2     1  UNL1       -0.1686
     34 O         138.9292  151.6243  153.3192 O.2     1  UNL1       -0.1686
     35 C         140.6162  147.1859  153.6645 C.1     1  UNL1        0.1003
     36 N         141.3535  146.2457  152.7577 N.1     1  UNL1       -0.1908
@<TRIPOS>BOND
     1     8     7    1
     2     8     9    1
     3     9    10    1
     4    10    14    1
     5    14    15   ar
     6    15    16   ar
     7    16    17   ar
     8    17    19    1
     9    19    20    1
    10    19    21    1
    11    19    22    1
    12    17    18   ar
    13    10    11    1
    14    11    12    1
    15    12    13    1
    16    13     1    1
    17     1     2   ar
    18     2     3   ar
    19     3     4   ar
    20     4    23    1
    21    23    24    1
    22    24    25    1
    23    25    26   ar
    24    26    27   ar
    25    27    28   ar
    26    28    31    1
    27    31    32    1
    28    31    33    2
    29    31    34    2
    30    28    29   ar
    31    29    30   ar
    32    30    35    1
    33    35    36    3
    34     4     5   ar
    35     5     6   ar
    36    13     8    1
    37     6     1   ar
    38    18    14   ar
    39    30    25   ar
@<TRIPOS>MOLECULE
*****
 36 39 0 0 0
SMALL
GASTEIGER

@<TRIPOS>ATOM
      1 C         141.0257  141.4825  159.1929 C.ar    1  UNL1        0.2204
      2 N         139.6834  141.5933  159.8532 N.ar    1  UNL1       -0.2089
      3 C         139.2445  142.8995  160.4457 C.ar    1  UNL1        0.1402
      4 C         140.1479  144.0951  160.3779 C.ar    1  UNL1        0.1773
      5 C         141.4902  143.9843  159.7176 C.ar    1  UNL1        0.1402
      6 N         141.9291  142.6780  159.1251 N.ar    1  UNL1       -0.2089
      7 C         142.5831  139.5296  160.8545 C.3     1  UNL1        0.0233
      8 C         142.2432  139.1998  159.4312 C.3     1  UNL1        0.0955
      9 C         142.6821  137.8935  158.8388 C.3     1  UNL1        0.1149
     10 N         142.3422  137.5637  157.4155 N.pl3   1  UNL1       -0.2590
     11 C         141.5636  138.5401  156.5847 C.3     1  UNL1        0.1166
     12 C         141.1247  139.8463  157.1772 C.3     1  UNL1        0.1151
     13 N         141.4646  140.1762  158.6005 N.pl3   1  UNL1       -0.2764
     14 C         142.7811  136.2574  156.8230 C.ar    1  UNL1        0.3120
     15 N         142.6242  135.8420  155.3902 N.ar    1  UNL1       -0.0922
     16 N         143.2001  134.4650  155.2411 N.ar    1  UNL1       -0.1018
     17 C         143.7129  134.0293  156.5817 C.ar    1  UNL1        0.3233
     18 O         143.4540  135.1371  157.5593 O.2     1  UNL1       -0.4012
     19 C         144.3694  132.7164  156.8904 C.3     1  UNL1        0.4711
     20 F         145.0260  131.4035  157.1990 F       1  UNL1       -0.1619
     21 F         144.1105  132.2568  155.4862 F       1  UNL1       -0.1619
     22 F         144.6284  133.1761  158.2945 F       1  UNL1       -0.1619
     23 O         139.7090  145.4013  160.9703 O.3     1  UNL1       -0.4675
     24 C         140.2226  145.8256  162.3143 C.3     1  UNL1        0.2328
     25 C         140.2112  144.8588  163.4610 C.ar    1  UNL1        0.0309
     26 C         138.9186  144.5167  164.1408 C.ar    1  UNL1        0.0013
     27 C         138.9072  143.5498  165.2875 C.ar    1  UNL1        0.0182
     28 C         140.1884  142.9250  165.7544 C.ar    1  UNL1        0.1064
     29 C         141.4811  143.2670  165.0746 C.ar    1  UNL1        0.0284
     30 C         141.4925  144.2339  163.9279 C.ar    1  UNL1        0.0692
     31 S         140.1770  141.9581  166.9011 S.O2    1  UNL1        0.0105
     32 C         140.1656  140.9911  168.0479 C.3     1  UNL1        0.1816
     33 O         139.8672  140.8376  165.9533 O.2     1  UNL1       -0.1686
     34 O         140.4868  143.0786  167.8490 O.2     1  UNL1       -0.1686
     35 C         142.7851  144.5759  163.2482 C.1     1  UNL1        0.1003
     36 N         144.0777  144.9180  162.5684 N.1     1  UNL1       -0.1908
@<TRIPOS>BOND
     1     8     7    1
     2     8     9    1
     3     9    10    1
     4    10    14    1
     5    14    15   ar
     6    15    16   ar
     7    16    17   ar
     8    17    19    1
     9    19    20    1
    10    19    21    1
    11    19    22    1
    12    17    18   ar
    13    10    11    1
    14    11    12    1
    15    12    13    1
    16    13     1    1
    17     1     2   ar
    18     2     3   ar
    19     3     4   ar
    20     4    23    1
    21    23    24    1
    22    24    25    1
    23    25    26   ar
    24    26    27   ar
    25    27    28   ar
    26    28    31    1
    27    31    32    1
    28    31    33    2
    29    31    34    2
    30    28    29   ar
    31    29    30   ar
    32    30    35    1
    33    35    36    3
    34     4     5   ar
    35     5     6   ar
    36    13     8    1
    37     6     1   ar
    38    18    14   ar
    39    30    25   ar
@<TRIPOS>MOLECULE
*****
 36 39 0 0 0
SMALL
GASTEIGER

@<TRIPOS>ATOM
      1 C         140.8362  138.9238  159.0004 C.ar    1  UNL1        0.2204
      2 N         141.8029  139.6647  158.1248 N.ar    1  UNL1       -0.2089
      3 C         141.7796  139.4579  156.6394 C.ar    1  UNL1        0.1402
      4 C         140.7896  138.5103  156.0294 C.ar    1  UNL1        0.1773
      5 C         139.8229  137.7694  156.9050 C.ar    1  UNL1        0.1402
      6 N         139.8463  137.9762  158.3905 N.ar    1  UNL1       -0.2089
      7 C         142.9867  137.6489  160.6589 C.3     1  UNL1        0.0233
      8 C         141.9347  138.4932  161.3152 C.3     1  UNL1        0.0955
      9 C         141.9580  138.7000  162.8006 C.3     1  UNL1        0.1149
     10 N         140.9060  139.5442  163.4569 N.pl3   1  UNL1       -0.2590
     11 C         139.8308  140.1816  162.6277 C.3     1  UNL1        0.1166
     12 C         139.8076  139.9748  161.1423 C.3     1  UNL1        0.1151
     13 N         140.8595  139.1306  160.4860 N.pl3   1  UNL1       -0.2764
     14 C         140.9293  139.7510  164.9425 C.ar    1  UNL1        0.3120
     15 N         142.1498  139.9951  165.7796 N.ar    1  UNL1       -0.0922
     16 N         141.7110  140.1449  167.2062 N.ar    1  UNL1       -0.1018
     17 C         140.2193  139.9934  167.2506 C.ar    1  UNL1        0.3233
     18 O         139.7362  139.7499  165.8516 O.2     1  UNL1       -0.4012
     19 C         139.3613  140.0716  168.4786 C.3     1  UNL1        0.4711
     20 F         138.5034  140.1499  169.7065 F       1  UNL1       -0.1619
     21 F         138.3292  139.2110  167.8122 F       1  UNL1       -0.1619
     22 F         140.3935  140.9323  169.1449 F       1  UNL1       -0.1619
     23 O         140.7664  138.3036  154.5439 O.3     1  UNL1       -0.4675
     24 C         141.7233  137.3409  153.9056 C.3     1  UNL1        0.2328
     25 C         142.0505  136.0455  154.5874 C.ar    1  UNL1        0.0309
     26 C         141.0996  134.8890  154.4966 C.ar    1  UNL1        0.0013
     27 C         141.4269  133.5936  155.1784 C.ar    1  UNL1        0.0182
     28 C         142.7051  133.4547  155.9510 C.ar    1  UNL1        0.1064
     29 C         143.6560  134.6112  156.0418 C.ar    1  UNL1        0.0284
     30 C         143.3288  135.9065  155.3600 C.ar    1  UNL1        0.0692
     31 S         143.0323  132.1593  156.6327 S.O2    1  UNL1        0.0105
     32 C         143.3595  130.8638  157.3145 C.3     1  UNL1        0.1816
     33 O         142.0610  131.4445  155.7408 O.2     1  UNL1       -0.1686
     34 O         144.0036  132.8741  157.5247 O.2     1  UNL1       -0.1686
     35 C         144.2797  137.0630  155.4508 C.1     1  UNL1        0.1003
     36 N         145.2307  138.2195  155.5416 N.1     1  UNL1       -0.1908
@<TRIPOS>BOND
     1     8     7    1
     2     8     9    1
     3     9    10    1
     4    10    14    1
     5    14    15   ar
     6    15    16   ar
     7    16    17   ar
     8    17    19    1
     9    19    20    1
    10    19    21    1
    11    19    22    1
    12    17    18   ar
    13    10    11    1
    14    11    12    1
    15    12    13    1
    16    13     1    1
    17     1     2   ar
    18     2     3   ar
    19     3     4   ar
    20     4    23    1
    21    23    24    1
    22    24    25    1
    23    25    26   ar
    24    26    27   ar
    25    27    28   ar
    26    28    31    1
    27    31    32    1
    28    31    33    2
    29    31    34    2
    30    28    29   ar
    31    29    30   ar
    32    30    35    1
    33    35    36    3
    34     4     5   ar
    35     5     6   ar
    36    13     8    1
    37     6     1   ar
    38    18    14   ar
    39    30    25   ar
@<TRIPOS>MOLECULE
*****
 36 39 0 0 0
SMALL
GASTEIGER

@<TRIPOS>ATOM
      1 C         140.7555  141.9616  160.1376 C.ar    1  UNL1        0.2204
      2 N         139.8841  141.7500  161.3400 N.ar    1  UNL1       -0.2089
      3 C         140.1472  140.5977  162.2635 C.ar    1  UNL1        0.1402
      4 C         141.2818  139.6569  161.9846 C.ar    1  UNL1        0.1773
      5 C         142.1533  139.8685  160.7822 C.ar    1  UNL1        0.1402
      6 N         141.8901  141.0209  159.8587 N.ar    1  UNL1       -0.2089
      7 C         141.4825  144.7497  160.9729 C.3     1  UNL1        0.0233
      8 C         140.8558  144.5080  159.6317 C.3     1  UNL1        0.0955
      9 C         140.5926  145.6602  158.7082 C.3     1  UNL1        0.1149
     10 N         139.9659  145.4185  157.3670 N.pl3   1  UNL1       -0.2590
     11 C         139.6024  144.0245  156.9493 C.3     1  UNL1        0.1166
     12 C         139.8656  142.8722  157.8728 C.3     1  UNL1        0.1151
     13 N         140.4923  143.1139  159.2140 N.pl3   1  UNL1       -0.2764
     14 C         139.7027  146.5709  156.4434 C.ar    1  UNL1        0.3120
     15 N         139.9920  146.6054  154.9720 N.ar    1  UNL1       -0.0922
     16 N         139.5721  147.9469  154.4484 N.ar    1  UNL1       -0.1018
     17 C         139.0232  148.7414  155.5963 C.ar    1  UNL1        0.3233
     18 O         139.1040  147.8910  156.8293 O.2     1  UNL1       -0.4012
     19 C         138.4877  150.1407  155.5239 C.3     1  UNL1        0.4711
     20 F         137.9522  151.5400  155.4514 F       1  UNL1       -0.1619
     21 F         138.9878  150.2591  154.1147 F       1  UNL1       -0.1619
     22 F         137.9876  150.0223  156.9331 F       1  UNL1       -0.1619
     23 O         141.5450  138.5046  162.9081 O.3     1  UNL1       -0.4675
     24 C         142.6592  138.5850  163.9092 C.3     1  UNL1        0.2328
     25 C         142.5295  139.4804  165.1055 C.ar    1  UNL1        0.0309
     26 C         141.6483  139.0786  166.2510 C.ar    1  UNL1        0.0013
     27 C         141.5186  139.9741  167.4475 C.ar    1  UNL1        0.0182
     28 C         142.2700  141.2713  167.4984 C.ar    1  UNL1        0.1064
     29 C         143.1511  141.6731  166.3529 C.ar    1  UNL1        0.0284
     30 C         143.2809  140.7777  165.1565 C.ar    1  UNL1        0.0692
     31 S         142.1402  142.1666  168.6948 S.O2    1  UNL1        0.0105
     32 C         142.0105  143.0621  169.8912 C.3     1  UNL1        0.1816
     33 O         143.5590  142.6175  168.5112 O.2     1  UNL1       -0.1686
     34 O         140.7214  141.7158  168.8783 O.2     1  UNL1       -0.1686
     35 C         144.1620  141.1795  164.0110 C.1     1  UNL1        0.1003
     36 N         145.0431  141.5814  162.8655 N.1     1  UNL1       -0.1908
@<TRIPOS>BOND
     1     8     7    1
     2     8     9    1
     3     9    10    1
     4    10    14    1
     5    14    15   ar
     6    15    16   ar
     7    16    17   ar
     8    17    19    1
     9    19    20    1
    10    19    21    1
    11    19    22    1
    12    17    18   ar
    13    10    11    1
    14    11    12    1
    15    12    13    1
    16    13     1    1
    17     1     2   ar
    18     2     3   ar
    19     3     4   ar
    20     4    23    1
    21    23    24    1
    22    24    25    1
    23    25    26   ar
    24    26    27   ar
    25    27    28   ar
    26    28    31    1
    27    31    32    1
    28    31    33    2
    29    31    34    2
    30    28    29   ar
    31    29    30   ar
    32    30    35    1
    33    35    36    3
    34     4     5   ar
    35     5     6   ar
    36    13     8    1
    37     6     1   ar
    38    18    14   ar
    39    30    25   ar
