@<TRIPOS>MOLECULE
*****
 34 38 0 0 0
SMALL
GASTEIGER

@<TRIPOS>ATOM
      1 C         139.5509  142.4979  158.4300 C.3     1  UNL1        0.1531
      2 C         138.6970  142.3768  159.6572 C.3     1  UNL1        0.1067
      3 N         138.9399  141.2638  160.6330 N.3     1  UNL1       -0.2665
      4 C         138.0860  141.1426  161.8603 C.3     1  UNL1        0.0940
      5 C         138.3289  140.0297  162.8361 C.3     1  UNL1        0.1107
      6 N         139.4257  139.0378  162.5846 N.am    1  UNL1       -0.2764
      7 C         139.6685  137.9247  163.5605 C.2     1  UNL1        0.2302
      8 O         140.7653  136.9329  163.3091 O.2     1  UNL1       -0.2745
      9 C         140.2796  139.1589  161.3574 C.3     1  UNL1        0.1119
     10 C         140.0367  140.2719  160.3815 C.3     1  UNL1        0.1075
     11 C         140.8906  140.3930  159.1543 C.3     1  UNL1        0.1601
     12 O         140.6477  141.5060  158.1785 O.3     1  UNL1       -0.3489
     13 C         137.6716  142.0906  156.1273 C.3     1  UNL1        0.0316
     14 C         138.3684  143.4073  156.3028 C.ar    1  UNL1       -0.0117
     15 C         139.3080  143.6110  157.4541 C.ar    1  UNL1        0.0027
     16 C         140.0048  144.9276  157.6296 C.ar    1  UNL1        0.0001
     17 C         139.7620  146.0406  156.6539 C.ar    1  UNL1        0.0301
     18 C         138.8223  145.8370  155.5025 C.ar    1  UNL1        0.1493
     19 F         138.5795  146.9500  154.5267 F       1  UNL1       -0.2035
     20 C         138.1255  144.5203  155.3269 C.ar    1  UNL1        0.0916
     21 C         137.1859  144.3166  154.1756 C.1     1  UNL1        0.1024
     22 N         136.2463  144.1130  153.0243 N.1     1  UNL1       -0.1908
     23 C         138.8146  137.8036  164.7877 C.3     1  UNL1        0.1131
     24 C         139.1536  138.5919  166.0180 C.ar    1  UNL1        0.0062
     25 C         140.4934  139.2559  166.1379 C.ar    1  UNL1        0.0009
     26 C         140.8323  140.0442  167.3681 C.ar    1  UNL1        0.0386
     27 C         139.8316  140.1686  168.4786 C.ar    1  UNL1        0.1672
     28 N         138.4920  139.5047  168.3588 N.ar    1  UNL1       -0.2252
     29 C         138.1529  138.7163  167.1285 C.ar    1  UNL1        0.0968
     30 N         140.1706  140.9569  169.7089 N.ar    1  UNL1       -0.1708
     31 C         141.4930  140.9610  170.4169 C.ar    1  UNL1        0.2272
     32 N         141.3864  141.8862  171.5928 N.ar    1  UNL1       -0.1044
     33 N         139.9981  142.4540  171.6115 N.ar    1  UNL1       -0.0222
     34 N         139.2467  141.8797  170.4472 N.ar    1  UNL1       -0.0371
@<TRIPOS>BOND
     1    13    14    1
     2    14    15   ar
     3     1    15    1
     4     1     2    1
     5     2     3    1
     6     3     4    1
     7     4     5    1
     8     5     6    1
     9     6     7   am
    10     7     8    2
    11     7    23    1
    12    23    24    1
    13    24    25   ar
    14    25    26   ar
    15    26    27   ar
    16    27    30    1
    17    30    31   ar
    18    31    32   ar
    19    32    33   ar
    20    33    34   ar
    21    27    28   ar
    22    28    29   ar
    23     6     9    1
    24    10     9    1
    25    10    11    1
    26    11    12    1
    27    15    16   ar
    28    16    17   ar
    29    17    18   ar
    30    18    19    1
    31    18    20   ar
    32    20    21    1
    33    21    22    3
    34    20    14   ar
    35    12     1    1
    36    10     3    1
    37    29    24   ar
    38    34    30   ar
@<TRIPOS>MOLECULE
*****
 34 38 0 0 0
SMALL
GASTEIGER

@<TRIPOS>ATOM
      1 C         138.4908  141.0771  157.6295 C.3     1  UNL1        0.1531
      2 C         137.6982  140.9500  158.8966 C.3     1  UNL1        0.1067
      3 N         138.2204  140.1140  160.0272 N.3     1  UNL1       -0.2665
      4 C         137.4279  139.9869  161.2944 C.3     1  UNL1        0.0940
      5 C         137.9501  139.1509  162.4251 C.3     1  UNL1        0.1107
      6 N         139.2649  138.4420  162.2886 N.am    1  UNL1       -0.2764
      7 C         139.7872  137.6060  163.4193 C.2     1  UNL1        0.2302
      8 O         141.1020  136.8971  163.2828 O.2     1  UNL1       -0.2745
      9 C         140.0575  138.5691  161.0214 C.3     1  UNL1        0.1119
     10 C         139.5353  139.4051  159.8907 C.3     1  UNL1        0.1075
     11 C         140.3279  139.5322  158.6236 C.3     1  UNL1        0.1601
     12 O         139.8056  140.3682  157.4930 O.3     1  UNL1       -0.3489
     13 C         139.2950  143.9580  157.3981 C.3     1  UNL1        0.0316
     14 C         138.3707  143.3535  156.3831 C.ar    1  UNL1       -0.0117
     15 C         137.9685  141.9131  156.4988 C.ar    1  UNL1        0.0027
     16 C         137.0442  141.3086  155.4839 C.ar    1  UNL1        0.0001
     17 C         136.5219  142.1446  154.3532 C.ar    1  UNL1        0.0301
     18 C         136.9240  143.5851  154.2375 C.ar    1  UNL1        0.1493
     19 F         136.4018  144.4210  153.1068 F       1  UNL1       -0.2035
     20 C         137.8484  144.1895  155.2524 C.ar    1  UNL1        0.0916
     21 C         138.2506  145.6300  155.1367 C.1     1  UNL1        0.1024
     22 N         138.6527  147.0704  155.0210 N.1     1  UNL1       -0.1908
     23 C         138.9946  137.4789  164.6864 C.3     1  UNL1        0.1131
     24 C         139.2684  138.4004  165.8378 C.ar    1  UNL1        0.0062
     25 C         140.5696  139.1432  165.9110 C.ar    1  UNL1        0.0009
     26 C         140.8434  140.0646  167.0625 C.ar    1  UNL1        0.0386
     27 C         139.8161  140.2434  168.1407 C.ar    1  UNL1        0.1672
     28 N         138.5150  139.5007  168.0675 N.ar    1  UNL1       -0.2252
     29 C         138.2411  138.5792  166.9161 C.ar    1  UNL1        0.0968
     30 N         140.0899  141.1649  169.2922 N.ar    1  UNL1       -0.1708
     31 C         140.4226  142.6242  169.1938 C.ar    1  UNL1        0.2272
     32 N         140.6174  143.1501  170.5851 N.ar    1  UNL1       -0.1044
     33 N         140.4051  142.0157  171.5433 N.ar    1  UNL1       -0.0222
     34 N         140.0791  140.7888  170.7443 N.ar    1  UNL1       -0.0371
@<TRIPOS>BOND
     1    13    14    1
     2    14    15   ar
     3     1    15    1
     4     1     2    1
     5     2     3    1
     6     3     4    1
     7     4     5    1
     8     5     6    1
     9     6     7   am
    10     7     8    2
    11     7    23    1
    12    23    24    1
    13    24    25   ar
    14    25    26   ar
    15    26    27   ar
    16    27    30    1
    17    30    31   ar
    18    31    32   ar
    19    32    33   ar
    20    33    34   ar
    21    27    28   ar
    22    28    29   ar
    23     6     9    1
    24    10     9    1
    25    10    11    1
    26    11    12    1
    27    15    16   ar
    28    16    17   ar
    29    17    18   ar
    30    18    19    1
    31    18    20   ar
    32    20    21    1
    33    21    22    3
    34    20    14   ar
    35    12     1    1
    36    10     3    1
    37    29    24   ar
    38    34    30   ar
@<TRIPOS>MOLECULE
*****
 34 38 0 0 0
SMALL
GASTEIGER

@<TRIPOS>ATOM
      1 C         140.8392  138.8150  158.5407 C.3     1  UNL1        0.1531
      2 C         140.3309  138.3807  159.8834 C.3     1  UNL1        0.1067
      3 N         141.2081  138.5057  161.0937 N.3     1  UNL1       -0.2665
      4 C         140.6998  138.0713  162.4365 C.3     1  UNL1        0.0940
      5 C         141.5769  138.1963  163.6468 C.3     1  UNL1        0.1107
      6 N         142.9624  138.7556  163.5144 N.am    1  UNL1       -0.2764
      7 C         143.8396  138.8805  164.7248 C.2     1  UNL1        0.2302
      8 O         145.2251  139.4398  164.5924 O.2     1  UNL1       -0.2745
      9 C         143.4708  139.1899  162.1717 C.3     1  UNL1        0.1119
     10 C         142.5936  139.0650  160.9613 C.3     1  UNL1        0.1075
     11 C         143.1019  139.4993  159.6186 C.3     1  UNL1        0.1601
     12 O         142.2247  139.3744  158.4083 O.3     1  UNL1       -0.3489
     13 C         139.0805  141.1027  157.7201 C.3     1  UNL1        0.0316
     14 C         139.0827  139.8339  156.9200 C.ar    1  UNL1       -0.0117
     15 C         139.9620  138.6901  157.3303 C.ar    1  UNL1        0.0027
     16 C         139.9642  137.4213  156.5302 C.ar    1  UNL1        0.0001
     17 C         139.0871  137.2963  155.3199 C.ar    1  UNL1        0.0301
     18 C         138.2077  138.4401  154.9095 C.ar    1  UNL1        0.1493
     19 F         137.3306  138.3151  153.6992 F       1  UNL1       -0.2035
     20 C         138.2055  139.7089  155.7096 C.ar    1  UNL1        0.0916
     21 C         137.3261  140.8528  155.2993 C.1     1  UNL1        0.1024
     22 N         136.4468  141.9966  154.8890 N.1     1  UNL1       -0.1908
     23 C         143.3313  138.4462  166.0675 C.3     1  UNL1        0.1131
     24 C         142.6208  139.4262  166.9533 C.ar    1  UNL1        0.0062
     25 C         142.5808  139.2047  168.4364 C.ar    1  UNL1        0.0009
     26 C         141.8703  140.1847  169.3222 C.ar    1  UNL1        0.0386
     27 C         141.1998  141.3862  168.7251 C.ar    1  UNL1        0.1672
     28 N         141.2397  141.6078  167.2421 N.ar    1  UNL1       -0.2252
     29 C         141.9502  140.6278  166.3562 C.ar    1  UNL1        0.0968
     30 N         140.4893  142.3662  169.6109 N.ar    1  UNL1       -0.1708
     31 C         140.6146  143.8598  169.5520 C.ar    1  UNL1        0.2272
     32 N         139.7314  144.4414  170.6159 N.ar    1  UNL1       -0.1044
     33 N         139.0602  143.3072  171.3323 N.ar    1  UNL1       -0.0222
     34 N         139.5286  142.0247  170.7112 N.ar    1  UNL1       -0.0371
@<TRIPOS>BOND
     1    13    14    1
     2    14    15   ar
     3     1    15    1
     4     1     2    1
     5     2     3    1
     6     3     4    1
     7     4     5    1
     8     5     6    1
     9     6     7   am
    10     7     8    2
    11     7    23    1
    12    23    24    1
    13    24    25   ar
    14    25    26   ar
    15    26    27   ar
    16    27    30    1
    17    30    31   ar
    18    31    32   ar
    19    32    33   ar
    20    33    34   ar
    21    27    28   ar
    22    28    29   ar
    23     6     9    1
    24    10     9    1
    25    10    11    1
    26    11    12    1
    27    15    16   ar
    28    16    17   ar
    29    17    18   ar
    30    18    19    1
    31    18    20   ar
    32    20    21    1
    33    21    22    3
    34    20    14   ar
    35    12     1    1
    36    10     3    1
    37    29    24   ar
    38    34    30   ar
@<TRIPOS>MOLECULE
*****
 34 38 0 0 0
SMALL
GASTEIGER

@<TRIPOS>ATOM
      1 C         142.1784  140.6255  165.8296 C.3     1  UNL1        0.1531
      2 C         142.2767  141.7058  164.7936 C.3     1  UNL1        0.1067
      3 N         142.5876  141.3529  163.3693 N.3     1  UNL1       -0.2665
      4 C         142.6860  142.4333  162.3332 C.3     1  UNL1        0.0940
      5 C         142.9969  142.0804  160.9089 C.3     1  UNL1        0.1107
      6 N         143.2096  140.6472  160.5205 N.am    1  UNL1       -0.2764
      7 C         143.5205  140.2944  159.0961 C.2     1  UNL1        0.2302
      8 O         143.7332  138.8612  158.7078 O.2     1  UNL1       -0.2745
      9 C         143.1113  139.5669  161.5565 C.3     1  UNL1        0.1119
     10 C         142.8003  139.9198  162.9809 C.3     1  UNL1        0.1075
     11 C         142.7020  138.8395  164.0169 C.3     1  UNL1        0.1601
     12 O         142.3911  139.1923  165.4412 O.3     1  UNL1       -0.3489
     13 C         139.6324  139.6638  167.0917 C.3     1  UNL1        0.0316
     14 C         140.5944  140.4975  167.8850 C.ar    1  UNL1       -0.0117
     15 C         141.8674  140.9783  167.2540 C.ar    1  UNL1        0.0027
     16 C         142.8295  141.8121  168.0473 C.ar    1  UNL1        0.0001
     17 C         142.5186  142.1649  169.4716 C.ar    1  UNL1        0.0301
     18 C         141.2455  141.6840  170.1027 C.ar    1  UNL1        0.1493
     19 F         140.9346  142.0369  171.5271 F       1  UNL1       -0.2035
     20 C         140.2835  140.8503  169.3094 C.ar    1  UNL1        0.0916
     21 C         139.0105  140.3695  169.9404 C.1     1  UNL1        0.1024
     22 N         137.7375  139.8886  170.5715 N.1     1  UNL1       -0.1908
     23 C         143.6188  141.3747  158.0602 C.3     1  UNL1        0.1131
     24 C         144.8950  141.5667  157.2957 C.ar    1  UNL1        0.0062
     25 C         145.1403  140.7872  156.0378 C.ar    1  UNL1        0.0009
     26 C         146.4164  140.9792  155.2733 C.ar    1  UNL1        0.0386
     27 C         147.4473  141.9508  155.7666 C.ar    1  UNL1        0.1672
     28 N         147.2021  142.7303  157.0244 N.ar    1  UNL1       -0.2252
     29 C         145.9259  142.5383  157.7890 C.ar    1  UNL1        0.0968
     30 N         148.7235  142.1428  155.0020 N.ar    1  UNL1       -0.1708
     31 C         148.8594  142.8145  153.6677 C.ar    1  UNL1        0.2272
     32 N         150.3078  142.7837  153.2786 N.ar    1  UNL1       -0.1044
     33 N         151.0670  142.0929  154.3725 N.ar    1  UNL1       -0.0222
     34 N         150.0879  141.6968  155.4376 N.ar    1  UNL1       -0.0371
@<TRIPOS>BOND
     1    13    14    1
     2    14    15   ar
     3     1    15    1
     4     1     2    1
     5     2     3    1
     6     3     4    1
     7     4     5    1
     8     5     6    1
     9     6     7   am
    10     7     8    2
    11     7    23    1
    12    23    24    1
    13    24    25   ar
    14    25    26   ar
    15    26    27   ar
    16    27    30    1
    17    30    31   ar
    18    31    32   ar
    19    32    33   ar
    20    33    34   ar
    21    27    28   ar
    22    28    29   ar
    23     6     9    1
    24    10     9    1
    25    10    11    1
    26    11    12    1
    27    15    16   ar
    28    16    17   ar
    29    17    18   ar
    30    18    19    1
    31    18    20   ar
    32    20    21    1
    33    21    22    3
    34    20    14   ar
    35    12     1    1
    36    10     3    1
    37    29    24   ar
    38    34    30   ar
@<TRIPOS>MOLECULE
*****
 34 38 0 0 0
SMALL
GASTEIGER

@<TRIPOS>ATOM
      1 C         142.2888  142.4479  165.7616 C.3     1  UNL1        0.1531
      2 C         143.3063  141.7582  164.9020 C.3     1  UNL1        0.1067
      3 N         143.4184  142.1058  163.4472 N.3     1  UNL1       -0.2665
      4 C         144.4360  141.4161  162.5875 C.3     1  UNL1        0.0940
      5 C         144.5481  141.7638  161.1327 C.3     1  UNL1        0.1107
      6 N         143.6428  142.8011  160.5375 N.am    1  UNL1       -0.2764
      7 C         143.7549  143.1488  159.0826 C.2     1  UNL1        0.2302
      8 O         142.8496  144.1862  158.4874 O.2     1  UNL1       -0.2745
      9 C         142.6253  143.4908  161.3971 C.3     1  UNL1        0.1119
     10 C         142.5131  143.1432  162.8520 C.3     1  UNL1        0.1075
     11 C         141.4956  143.8329  163.7116 C.3     1  UNL1        0.1601
     12 O         141.3835  143.4852  165.1664 O.3     1  UNL1       -0.3489
     13 C         139.7770  141.1895  166.8139 C.3     1  UNL1        0.0316
     14 C         140.9208  141.4710  167.7426 C.ar    1  UNL1       -0.0117
     15 C         142.1767  142.1002  167.2165 C.ar    1  UNL1        0.0027
     16 C         143.3204  142.3817  168.1452 C.ar    1  UNL1        0.0001
     17 C         143.2083  142.0341  169.6000 C.ar    1  UNL1        0.0301
     18 C         141.9524  141.4049  170.1262 C.ar    1  UNL1        0.1493
     19 F         141.8402  141.0573  171.5810 F       1  UNL1       -0.2035
     20 C         140.8086  141.1234  169.1975 C.ar    1  UNL1        0.0916
     21 C         139.5527  140.4942  169.7236 C.1     1  UNL1        0.1024
     22 N         138.2968  139.8651  170.2497 N.1     1  UNL1       -0.1908
     23 C         144.7724  142.4591  158.2230 C.3     1  UNL1        0.1131
     24 C         144.4105  141.1960  157.4994 C.ar    1  UNL1        0.0062
     25 C         143.0925  140.5308  157.7650 C.ar    1  UNL1        0.0009
     26 C         142.7306  139.2677  157.0414 C.ar    1  UNL1        0.0386
     27 C         143.6866  138.6698  156.0523 C.ar    1  UNL1        0.1672
     28 N         145.0045  139.3349  155.7867 N.ar    1  UNL1       -0.2252
     29 C         145.3665  140.5981  156.5102 C.ar    1  UNL1        0.0968
     30 N         143.3247  137.4067  155.3287 N.ar    1  UNL1       -0.1708
     31 C         143.8985  136.0456  155.5899 C.ar    1  UNL1        0.2272
     32 N         143.2538  135.0805  154.6395 N.ar    1  UNL1       -0.1044
     33 N         142.2816  135.8453  153.7909 N.ar    1  UNL1       -0.0222
     34 N         142.3254  137.2829  154.2168 N.ar    1  UNL1       -0.0371
@<TRIPOS>BOND
     1    13    14    1
     2    14    15   ar
     3     1    15    1
     4     1     2    1
     5     2     3    1
     6     3     4    1
     7     4     5    1
     8     5     6    1
     9     6     7   am
    10     7     8    2
    11     7    23    1
    12    23    24    1
    13    24    25   ar
    14    25    26   ar
    15    26    27   ar
    16    27    30    1
    17    30    31   ar
    18    31    32   ar
    19    32    33   ar
    20    33    34   ar
    21    27    28   ar
    22    28    29   ar
    23     6     9    1
    24    10     9    1
    25    10    11    1
    26    11    12    1
    27    15    16   ar
    28    16    17   ar
    29    17    18   ar
    30    18    19    1
    31    18    20   ar
    32    20    21    1
    33    21    22    3
    34    20    14   ar
    35    12     1    1
    36    10     3    1
    37    29    24   ar
    38    34    30   ar
@<TRIPOS>MOLECULE
*****
 34 38 0 0 0
SMALL
GASTEIGER

@<TRIPOS>ATOM
      1 C         142.3585  140.5401  164.2334 C.3     1  UNL1        0.1531
      2 C         141.4846  139.7086  163.3418 C.3     1  UNL1        0.1067
      3 N         141.8661  139.4932  161.9072 N.3     1  UNL1       -0.2665
      4 C         140.9922  138.6618  161.0155 C.3     1  UNL1        0.0940
      5 C         141.3737  138.4464  159.5809 C.3     1  UNL1        0.1107
      6 N         142.6290  139.0624  159.0380 N.am    1  UNL1       -0.2764
      7 C         143.0104  138.8470  157.6033 C.2     1  UNL1        0.2302
      8 O         144.2657  139.4630  157.0604 O.2     1  UNL1       -0.2745
      9 C         143.5028  139.8938  159.9296 C.3     1  UNL1        0.1119
     10 C         143.1214  140.1093  161.3643 C.3     1  UNL1        0.1075
     11 C         143.9952  140.9407  162.2559 C.3     1  UNL1        0.1601
     12 O         143.6137  141.1561  163.6905 O.3     1  UNL1       -0.3489
     13 C         143.3289  138.6426  166.3448 C.3     1  UNL1        0.0316
     14 C         142.4622  139.8068  166.7237 C.ar    1  UNL1       -0.0117
     15 C         141.9770  140.7555  165.6681 C.ar    1  UNL1        0.0027
     16 C         141.1103  141.9197  166.0470 C.ar    1  UNL1        0.0001
     17 C         140.7289  142.1352  167.4816 C.ar    1  UNL1        0.0301
     18 C         141.2141  141.1864  168.5373 C.ar    1  UNL1        0.1493
     19 F         140.8327  141.4019  169.9719 F       1  UNL1       -0.2035
     20 C         142.0808  140.0223  168.1584 C.ar    1  UNL1        0.0916
     21 C         142.5660  139.0736  169.2141 C.1     1  UNL1        0.1024
     22 N         143.0513  138.1248  170.2697 N.1     1  UNL1       -0.1908
     23 C         142.1366  138.0155  156.7117 C.3     1  UNL1        0.1131
     24 C         142.5496  136.6207  156.3460 C.ar    1  UNL1        0.0062
     25 C         142.3775  136.1322  154.9381 C.ar    1  UNL1        0.0009
     26 C         142.7905  134.7374  154.5725 C.ar    1  UNL1        0.0386
     27 C         143.3756  133.8309  155.6145 C.ar    1  UNL1        0.1672
     28 N         143.5477  134.3193  157.0223 N.ar    1  UNL1       -0.2252
     29 C         143.1347  135.7142  157.3880 C.ar    1  UNL1        0.0968
     30 N         143.7886  132.4361  155.2488 N.ar    1  UNL1       -0.1708
     31 C         143.2668  131.6367  154.0918 C.ar    1  UNL1        0.2272
     32 N         143.9517  130.3022  154.1038 N.ar    1  UNL1       -0.1044
     33 N         144.8968  130.2768  155.2684 N.ar    1  UNL1       -0.0222
     34 N         144.7961  131.5955  155.9760 N.ar    1  UNL1       -0.0371
@<TRIPOS>BOND
     1    13    14    1
     2    14    15   ar
     3     1    15    1
     4     1     2    1
     5     2     3    1
     6     3     4    1
     7     4     5    1
     8     5     6    1
     9     6     7   am
    10     7     8    2
    11     7    23    1
    12    23    24    1
    13    24    25   ar
    14    25    26   ar
    15    26    27   ar
    16    27    30    1
    17    30    31   ar
    18    31    32   ar
    19    32    33   ar
    20    33    34   ar
    21    27    28   ar
    22    28    29   ar
    23     6     9    1
    24    10     9    1
    25    10    11    1
    26    11    12    1
    27    15    16   ar
    28    16    17   ar
    29    17    18   ar
    30    18    19    1
    31    18    20   ar
    32    20    21    1
    33    21    22    3
    34    20    14   ar
    35    12     1    1
    36    10     3    1
    37    29    24   ar
    38    34    30   ar
@<TRIPOS>MOLECULE
*****
 34 38 0 0 0
SMALL
GASTEIGER

@<TRIPOS>ATOM
      1 C         142.2039  137.6412  157.1394 C.3     1  UNL1        0.1531
      2 C         140.9774  137.7951  157.9890 C.3     1  UNL1        0.1067
      3 N         140.9993  138.7071  159.1796 N.3     1  UNL1       -0.2665
      4 C         139.7727  138.8610  160.0293 C.3     1  UNL1        0.0940
      5 C         139.7947  139.7730  161.2199 C.3     1  UNL1        0.1107
      6 N         141.0433  140.5311  161.5611 N.am    1  UNL1       -0.2764
      7 C         141.0652  141.4431  162.7518 C.2     1  UNL1        0.2302
      8 O         142.3137  142.2012  163.0929 O.2     1  UNL1       -0.2745
      9 C         142.2698  140.3772  160.7115 C.3     1  UNL1        0.1119
     10 C         142.2479  139.4652  159.5207 C.3     1  UNL1        0.1075
     11 C         143.4745  139.3113  158.6712 C.3     1  UNL1        0.1601
     12 O         143.4525  138.3994  157.4805 O.3     1  UNL1       -0.3489
     13 C         143.2540  134.8409  157.3752 C.3     1  UNL1        0.0316
     14 C         142.7070  135.3291  156.0666 C.ar    1  UNL1       -0.0117
     15 C         142.1820  136.7292  155.9486 C.ar    1  UNL1        0.0027
     16 C         141.6350  137.2174  154.6400 C.ar    1  UNL1        0.0001
     17 C         141.6131  136.3055  153.4493 C.ar    1  UNL1        0.0301
     18 C         142.1381  134.9053  153.5672 C.ar    1  UNL1        0.1493
     19 F         142.1162  133.9933  152.3765 F       1  UNL1       -0.2035
     20 C         142.6851  134.4171  154.8758 C.ar    1  UNL1        0.0916
     21 C         143.2101  133.0169  154.9937 C.1     1  UNL1        0.1024
     22 N         143.7352  131.6168  155.1116 N.1     1  UNL1       -0.1908
     23 C         139.8386  141.5970  163.6014 C.3     1  UNL1        0.1131
     24 C         139.9553  141.5815  165.0967 C.ar    1  UNL1        0.0062
     25 C         140.3580  142.8262  165.8306 C.ar    1  UNL1        0.0009
     26 C         140.4747  142.8107  167.3259 C.ar    1  UNL1        0.0386
     27 C         140.1886  141.5504  168.0875 C.ar    1  UNL1        0.1672
     28 N         139.7859  140.3057  167.3537 N.ar    1  UNL1       -0.2252
     29 C         139.6692  140.3212  165.8583 C.ar    1  UNL1        0.0968
     30 N         140.3052  141.5349  169.5828 N.ar    1  UNL1       -0.1708
     31 C         140.4924  140.3183  170.4400 C.ar    1  UNL1        0.2272
     32 N         140.5580  140.7648  171.8706 N.ar    1  UNL1       -0.1044
     33 N         140.4115  142.2574  171.8975 N.ar    1  UNL1       -0.0222
     34 N         140.2552  142.7334  170.4836 N.ar    1  UNL1       -0.0371
@<TRIPOS>BOND
     1    13    14    1
     2    14    15   ar
     3     1    15    1
     4     1     2    1
     5     2     3    1
     6     3     4    1
     7     4     5    1
     8     5     6    1
     9     6     7   am
    10     7     8    2
    11     7    23    1
    12    23    24    1
    13    24    25   ar
    14    25    26   ar
    15    26    27   ar
    16    27    30    1
    17    30    31   ar
    18    31    32   ar
    19    32    33   ar
    20    33    34   ar
    21    27    28   ar
    22    28    29   ar
    23     6     9    1
    24    10     9    1
    25    10    11    1
    26    11    12    1
    27    15    16   ar
    28    16    17   ar
    29    17    18   ar
    30    18    19    1
    31    18    20   ar
    32    20    21    1
    33    21    22    3
    34    20    14   ar
    35    12     1    1
    36    10     3    1
    37    29    24   ar
    38    34    30   ar
@<TRIPOS>MOLECULE
*****
 34 38 0 0 0
SMALL
GASTEIGER

@<TRIPOS>ATOM
      1 C         142.8192  140.2627  165.2542 C.3     1  UNL1        0.1531
      2 C         141.7782  139.7461  164.3059 C.3     1  UNL1        0.1067
      3 N         142.0769  139.6602  162.8385 N.3     1  UNL1       -0.2665
      4 C         141.0359  139.1436  161.8901 C.3     1  UNL1        0.0940
      5 C         141.3347  139.0577  160.4227 C.3     1  UNL1        0.1107
      6 N         142.6745  139.4885  159.9036 N.am    1  UNL1       -0.2764
      7 C         142.9732  139.4026  158.4361 C.2     1  UNL1        0.2302
      8 O         144.3130  139.8334  157.9171 O.2     1  UNL1       -0.2745
      9 C         143.7155  140.0051  160.8519 C.3     1  UNL1        0.1119
     10 C         143.4167  140.0910  162.3194 C.3     1  UNL1        0.1075
     11 C         144.4577  140.6076  163.2678 C.3     1  UNL1        0.1601
     12 O         144.1589  140.6935  164.7352 O.3     1  UNL1       -0.3489
     13 C         141.6026  142.7569  166.3940 C.3     1  UNL1        0.0316
     14 C         141.9122  141.5957  167.2916 C.ar    1  UNL1       -0.0117
     15 C         142.5204  140.3486  166.7217 C.ar    1  UNL1        0.0027
     16 C         142.8299  139.1873  167.6193 C.ar    1  UNL1        0.0001
     17 C         142.5312  139.2731  169.0867 C.ar    1  UNL1        0.0301
     18 C         141.9229  140.5203  169.6566 C.ar    1  UNL1        0.1493
     19 F         141.6242  140.6061  171.1240 F       1  UNL1       -0.2035
     20 C         141.6134  141.6816  168.7590 C.ar    1  UNL1        0.0916
     21 C         141.0052  142.9286  169.3289 C.1     1  UNL1        0.1024
     22 N         140.3969  144.1757  169.8987 N.1     1  UNL1       -0.1908
     23 C         141.9323  138.8860  157.4878 C.3     1  UNL1        0.1131
     24 C         142.0076  137.4736  156.9883 C.ar    1  UNL1        0.0062
     25 C         142.9572  136.5026  157.6250 C.ar    1  UNL1        0.0009
     26 C         143.0326  135.0902  157.1256 C.ar    1  UNL1        0.0386
     27 C         142.1583  134.6488  155.9894 C.ar    1  UNL1        0.1672
     28 N         141.2087  135.6198  155.3527 N.ar    1  UNL1       -0.2252
     29 C         141.1333  137.0322  155.8522 C.ar    1  UNL1        0.0968
     30 N         142.2336  133.2364  155.4900 N.ar    1  UNL1       -0.1708
     31 C         143.4893  132.4763  155.1811 C.ar    1  UNL1        0.2272
     32 N         143.0982  131.1062  154.7119 N.ar    1  UNL1       -0.1044
     33 N         141.6008  131.0197  154.7308 N.ar    1  UNL1       -0.0222
     34 N         141.0665  132.3362  155.2117 N.ar    1  UNL1       -0.0371
@<TRIPOS>BOND
     1    13    14    1
     2    14    15   ar
     3     1    15    1
     4     1     2    1
     5     2     3    1
     6     3     4    1
     7     4     5    1
     8     5     6    1
     9     6     7   am
    10     7     8    2
    11     7    23    1
    12    23    24    1
    13    24    25   ar
    14    25    26   ar
    15    26    27   ar
    16    27    30    1
    17    30    31   ar
    18    31    32   ar
    19    32    33   ar
    20    33    34   ar
    21    27    28   ar
    22    28    29   ar
    23     6     9    1
    24    10     9    1
    25    10    11    1
    26    11    12    1
    27    15    16   ar
    28    16    17   ar
    29    17    18   ar
    30    18    19    1
    31    18    20   ar
    32    20    21    1
    33    21    22    3
    34    20    14   ar
    35    12     1    1
    36    10     3    1
    37    29    24   ar
    38    34    30   ar
@<TRIPOS>MOLECULE
*****
 34 38 0 0 0
SMALL
GASTEIGER

@<TRIPOS>ATOM
      1 C         142.0529  140.4913  165.6346 C.3     1  UNL1        0.1531
      2 C         141.5757  141.3831  164.5269 C.3     1  UNL1        0.1067
      3 N         141.8323  141.0069  163.0978 N.3     1  UNL1       -0.2665
      4 C         141.3551  141.8987  161.9901 C.3     1  UNL1        0.0940
      5 C         141.6117  141.5224  160.5609 C.3     1  UNL1        0.1107
      6 N         142.3456  140.2543  160.2394 N.am    1  UNL1       -0.2764
      7 C         142.6022  139.8780  158.8102 C.2     1  UNL1        0.2302
      8 O         143.3361  138.6099  158.4887 O.2     1  UNL1       -0.2745
      9 C         142.8228  139.3625  161.3470 C.3     1  UNL1        0.1119
     10 C         142.5662  139.7388  162.7763 C.3     1  UNL1        0.1075
     11 C         143.0434  138.8469  163.8839 C.3     1  UNL1        0.1601
     12 O         142.7868  139.2232  165.3131 O.3     1  UNL1       -0.3489
     13 C         139.5570  139.5513  167.0083 C.3     1  UNL1        0.0316
     14 C         140.5484  140.3976  167.7506 C.ar    1  UNL1       -0.0117
     15 C         141.7963  140.8676  167.0638 C.ar    1  UNL1        0.0027
     16 C         142.7876  141.7139  167.8061 C.ar    1  UNL1        0.0001
     17 C         142.5310  142.0902  169.2353 C.ar    1  UNL1        0.0301
     18 C         141.2830  141.6202  169.9222 C.ar    1  UNL1        0.1493
     19 F         141.0265  141.9964  171.3513 F       1  UNL1       -0.2035
     20 C         140.2917  140.7738  169.1799 C.ar    1  UNL1        0.0916
     21 C         139.0438  140.3038  169.8667 C.1     1  UNL1        0.1024
     22 N         137.7959  139.8338  170.5535 N.1     1  UNL1       -0.1908
     23 C         142.1250  140.7698  157.7026 C.3     1  UNL1        0.1131
     24 C         140.6725  140.7897  157.3288 C.ar    1  UNL1        0.0062
     25 C         139.9817  142.0964  157.0729 C.ar    1  UNL1        0.0009
     26 C         138.5292  142.1163  156.6991 C.ar    1  UNL1        0.0386
     27 C         137.7674  140.8295  156.5812 C.ar    1  UNL1        0.1672
     28 N         138.4581  139.5228  156.8371 N.ar    1  UNL1       -0.2252
     29 C         139.9107  139.5029  157.2109 C.ar    1  UNL1        0.0968
     30 N         136.3149  140.8494  156.2074 N.ar    1  UNL1       -0.1708
     31 C         135.7173  141.5600  155.0293 C.ar    1  UNL1        0.2272
     32 N         134.2379  141.3119  155.0399 N.ar    1  UNL1       -0.1044
     33 N         133.9213  140.4479  156.2245 N.ar    1  UNL1       -0.0222
     34 N         135.2049  140.1620  156.9460 N.ar    1  UNL1       -0.0371
@<TRIPOS>BOND
     1    13    14    1
     2    14    15   ar
     3     1    15    1
     4     1     2    1
     5     2     3    1
     6     3     4    1
     7     4     5    1
     8     5     6    1
     9     6     7   am
    10     7     8    2
    11     7    23    1
    12    23    24    1
    13    24    25   ar
    14    25    26   ar
    15    26    27   ar
    16    27    30    1
    17    30    31   ar
    18    31    32   ar
    19    32    33   ar
    20    33    34   ar
    21    27    28   ar
    22    28    29   ar
    23     6     9    1
    24    10     9    1
    25    10    11    1
    26    11    12    1
    27    15    16   ar
    28    16    17   ar
    29    17    18   ar
    30    18    19    1
    31    18    20   ar
    32    20    21    1
    33    21    22    3
    34    20    14   ar
    35    12     1    1
    36    10     3    1
    37    29    24   ar
    38    34    30   ar
