@<TRIPOS>MOLECULE
*****
 23 25 0 0 0
SMALL
GASTEIGER

@<TRIPOS>ATOM
      1 N         138.2865  141.4374  163.0115 N.ar    1  UNL1       -0.2075
      2 C         138.6695  142.8132  163.4701 C.ar    1  UNL1        0.1378
      3 C         138.3442  143.7766  162.3673 C.ar    1  UNL1        0.1713
      4 N         137.7602  142.9961  161.2272 N.ar    1  UNL1       -0.1135
      5 N         137.7245  141.5504  161.6254 N.ar    1  UNL1       -0.0583
      6 F         138.0210  138.8941  167.5349 F       1  UNL1       -0.2041
      7 C         138.3060  138.8991  166.0623 C.ar    1  UNL1        0.1416
      8 C         138.7433  137.6376  165.3787 C.ar    1  UNL1        0.0297
      9 C         139.0283  137.6426  163.9060 C.ar    1  UNL1        0.0039
     10 C         138.8761  138.9092  163.1169 C.ar    1  UNL1        0.0193
     11 C         138.4388  140.1708  163.8006 C.ar    1  UNL1        0.0868
     12 C         138.1537  140.1657  165.2732 C.ar    1  UNL1        0.0488
     13 N         138.5643  145.2600  162.3990 N.pl3   1  UNL1       -0.3142
     14 H         137.8237  145.8625  162.6393 H       1  UNL1        0.1483
     15 C         139.9128  145.8255  162.0645 C.3     1  UNL1        0.1058
     16 C         140.8719  145.0324  161.2272 C.3     1  UNL1        0.0936
     17 N         142.0659  144.3854  161.8641 N.3     1  UNL1       -0.2690
     18 C         142.2744  144.6923  163.3176 C.3     1  UNL1        0.0748
     19 C         143.3620  144.2065  164.2294 C.3     1  UNL1        0.0494
     20 C         144.5097  143.2942  163.9128 C.3     1  UNL1        0.1437
     21 O         144.8534  142.6421  162.6064 O.3     1  UNL1       -0.3522
     22 C         144.1341  142.7413  161.2939 C.3     1  UNL1        0.1594
     23 C         142.8936  143.5172  160.9636 C.3     1  UNL1        0.1046
@<TRIPOS>BOND
     1     6     7    1
     2     7     8   ar
     3     8     9   ar
     4     9    10   ar
     5    10    11   ar
     6    11     1    1
     7     1     2   ar
     8     2     3   ar
     9     3    13    1
    10    13    15    1
    11    15    16    1
    12    16    17    1
    13    17    18    1
    14    18    19    1
    15    19    20    1
    16    20    21    1
    17    21    22    1
    18    22    23    1
    19     3     4   ar
    20     4     5   ar
    21    11    12   ar
    22    12     7   ar
    23     5     1   ar
    24    23    17    1
    25    13    14    1
@<TRIPOS>MOLECULE
*****
 23 25 0 0 0
SMALL
GASTEIGER

@<TRIPOS>ATOM
      1 N         139.8687  140.1631  167.9088 N.ar    1  UNL1       -0.2075
      2 C         139.9908  139.7504  166.4719 C.ar    1  UNL1        0.1378
      3 C         138.8424  138.8400  166.1519 C.ar    1  UNL1        0.1713
      4 N         138.0106  138.6900  167.3911 N.ar    1  UNL1       -0.1135
      5 N         138.6450  139.5078  168.4770 N.ar    1  UNL1       -0.0583
      6 F         140.8534  144.7350  170.1731 F       1  UNL1       -0.2041
      7 C         141.2984  143.3576  169.7800 C.ar    1  UNL1        0.1416
      8 C         142.6805  142.8885  170.1260 C.ar    1  UNL1        0.0297
      9 C         143.1254  141.5111  169.7329 C.ar    1  UNL1        0.0039
     10 C         142.1882  140.6025  168.9938 C.ar    1  UNL1        0.0193
     11 C         140.8060  141.0716  168.6479 C.ar    1  UNL1        0.0868
     12 C         140.3611  142.4490  169.0410 C.ar    1  UNL1        0.0488
     13 N         138.5730  138.1932  164.8257 N.pl3   1  UNL1       -0.3142
     14 H         138.1649  137.2980  164.7884 H       1  UNL1        0.1483
     15 C         138.9256  138.9102  163.5561 C.3     1  UNL1        0.1058
     16 C         138.0818  140.0565  163.0831 C.3     1  UNL1        0.0936
     17 N         138.6031  141.4600  163.1761 N.3     1  UNL1       -0.2690
     18 C         137.5629  142.5407  163.1939 C.3     1  UNL1        0.0748
     19 C         137.7583  144.0255  163.2790 C.3     1  UNL1        0.0494
     20 C         139.0420  144.7962  163.3672 C.3     1  UNL1        0.1437
     21 O         140.4475  144.2727  163.3922 O.3     1  UNL1       -0.3522
     22 C         140.9163  142.8490  163.3351 C.3     1  UNL1        0.1594
     23 C         140.0953  141.5972  163.2389 C.3     1  UNL1        0.1046
@<TRIPOS>BOND
     1     6     7    1
     2     7     8   ar
     3     8     9   ar
     4     9    10   ar
     5    10    11   ar
     6    11     1    1
     7     1     2   ar
     8     2     3   ar
     9     3    13    1
    10    13    15    1
    11    15    16    1
    12    16    17    1
    13    17    18    1
    14    18    19    1
    15    19    20    1
    16    20    21    1
    17    21    22    1
    18    22    23    1
    19     3     4   ar
    20     4     5   ar
    21    11    12   ar
    22    12     7   ar
    23     5     1   ar
    24    23    17    1
    25    13    14    1
@<TRIPOS>MOLECULE
*****
 23 25 0 0 0
SMALL
GASTEIGER

@<TRIPOS>ATOM
      1 N         142.1121  139.8642  167.4218 N.ar    1  UNL1       -0.2075
      2 C         142.0067  139.9051  165.9261 C.ar    1  UNL1        0.1378
      3 C         142.9849  138.9159  165.3653 C.ar    1  UNL1        0.1713
      4 N         143.6949  138.2636  166.5144 N.ar    1  UNL1       -0.1135
      5 N         143.1555  138.8498  167.7854 N.ar    1  UNL1       -0.0583
      6 F         137.9202  140.4776  170.4303 F       1  UNL1       -0.2041
      7 C         139.2183  140.9991  169.8892 C.ar    1  UNL1        0.1416
      8 C         139.7185  142.3488  170.3110 C.ar    1  UNL1        0.0297
      9 C         141.0166  142.8704  169.7699 C.ar    1  UNL1        0.0039
     10 C         141.8145  142.0422  168.8068 C.ar    1  UNL1        0.0193
     11 C         141.3142  140.6924  168.3849 C.ar    1  UNL1        0.0868
     12 C         140.0162  140.1709  168.9261 C.ar    1  UNL1        0.0488
     13 N         143.2131  138.6292  163.9107 N.pl3   1  UNL1       -0.3142
     14 H         142.5632  138.0868  163.4080 H       1  UNL1        0.1483
     15 C         144.4316  139.1690  163.2221 C.3     1  UNL1        0.1058
     16 C         145.1590  140.3471  163.7989 C.3     1  UNL1        0.0936
     17 N         144.6851  141.7393  163.5035 N.3     1  UNL1       -0.2690
     18 C         144.5417  142.6437  164.6916 C.3     1  UNL1        0.0748
     19 C         144.0950  144.0753  164.7286 C.3     1  UNL1        0.0494
     20 C         143.6815  144.9557  163.5869 C.3     1  UNL1        0.1437
     21 O         143.6124  144.6223  162.1261 O.3     1  UNL1       -0.3522
     22 C         143.9398  143.3260  161.4462 C.3     1  UNL1        0.1594
     23 C         144.4172  142.0429  162.0593 C.3     1  UNL1        0.1046
@<TRIPOS>BOND
     1     6     7    1
     2     7     8   ar
     3     8     9   ar
     4     9    10   ar
     5    10    11   ar
     6    11     1    1
     7     1     2   ar
     8     2     3   ar
     9     3    13    1
    10    13    15    1
    11    15    16    1
    12    16    17    1
    13    17    18    1
    14    18    19    1
    15    19    20    1
    16    20    21    1
    17    21    22    1
    18    22    23    1
    19     3     4   ar
    20     4     5   ar
    21    11    12   ar
    22    12     7   ar
    23     5     1   ar
    24    23    17    1
    25    13    14    1
@<TRIPOS>MOLECULE
*****
 23 25 0 0 0
SMALL
GASTEIGER

@<TRIPOS>ATOM
      1 N         139.3281  140.1612  167.6582 N.ar    1  UNL1       -0.2075
      2 C         139.3355  140.5014  166.1974 C.ar    1  UNL1        0.1378
      3 C         138.3421  139.6125  165.5095 C.ar    1  UNL1        0.1713
      4 N         137.7208  138.7230  166.5454 N.ar    1  UNL1       -0.1135
      5 N         138.3303  139.0622  167.8734 N.ar    1  UNL1       -0.0583
      6 F         141.0248  144.4378  170.0732 F       1  UNL1       -0.2041
      7 C         141.0192  142.9452  169.9256 C.ar    1  UNL1        0.1416
      8 C         141.8561  142.0981  170.8376 C.ar    1  UNL1        0.0297
      9 C         141.8505  140.6054  170.6899 C.ar    1  UNL1        0.0039
     10 C         141.0078  139.9597  169.6301 C.ar    1  UNL1        0.0193
     11 C         140.1708  140.8069  168.7180 C.ar    1  UNL1        0.0868
     12 C         140.1765  142.2995  168.8658 C.ar    1  UNL1        0.0488
     13 N         138.0255  139.6129  164.0433 N.pl3   1  UNL1       -0.3142
     14 H         137.2329  140.0931  163.7110 H       1  UNL1        0.1483
     15 C         138.9166  138.8817  163.0834 C.3     1  UNL1        0.1058
     16 C         139.8998  137.8706  163.5943 C.3     1  UNL1        0.0936
     17 N         141.3347  138.2567  163.7990 N.3     1  UNL1       -0.2690
     18 C         141.8400  138.1601  165.2081 C.3     1  UNL1        0.0748
     19 C         143.2101  138.4712  165.7337 C.3     1  UNL1        0.0494
     20 C         144.4130  138.9558  164.9802 C.3     1  UNL1        0.1437
     21 O         144.5433  139.2489  163.5149 O.3     1  UNL1       -0.3522
     22 C         143.5026  139.1298  162.4412 C.3     1  UNL1        0.1594
     23 C         142.0747  138.6882  162.5677 C.3     1  UNL1        0.1046
@<TRIPOS>BOND
     1     6     7    1
     2     7     8   ar
     3     8     9   ar
     4     9    10   ar
     5    10    11   ar
     6    11     1    1
     7     1     2   ar
     8     2     3   ar
     9     3    13    1
    10    13    15    1
    11    15    16    1
    12    16    17    1
    13    17    18    1
    14    18    19    1
    15    19    20    1
    16    20    21    1
    17    21    22    1
    18    22    23    1
    19     3     4   ar
    20     4     5   ar
    21    11    12   ar
    22    12     7   ar
    23     5     1   ar
    24    23    17    1
    25    13    14    1
@<TRIPOS>MOLECULE
*****
 23 25 0 0 0
SMALL
GASTEIGER

@<TRIPOS>ATOM
      1 N         143.3595  140.6778  163.0205 N.ar    1  UNL1       -0.2075
      2 C         142.1451  139.8248  163.2382 C.ar    1  UNL1        0.1378
      3 C         142.4428  138.4518  162.7126 C.ar    1  UNL1        0.1713
      4 N         143.8413  138.4563  162.1701 N.ar    1  UNL1       -0.1135
      5 N         144.4078  139.8322  162.3604 N.ar    1  UNL1       -0.0583
      6 F         145.2876  144.3429  166.1588 F       1  UNL1       -0.2041
      7 C         144.4648  143.9556  164.9660 C.ar    1  UNL1        0.1416
      8 C         143.7832  145.0133  164.1495 C.ar    1  UNL1        0.0297
      9 C         142.9604  144.6259  162.9567 C.ar    1  UNL1        0.0039
     10 C         142.8192  143.1808  162.5803 C.ar    1  UNL1        0.0193
     11 C         143.5007  142.1230  163.3969 C.ar    1  UNL1        0.0868
     12 C         144.3235  142.5104  164.5897 C.ar    1  UNL1        0.0488
     13 N         141.5066  137.2799  162.7270 N.pl3   1  UNL1       -0.3142
     14 H         141.5980  136.5685  162.0526 H       1  UNL1        0.1483
     15 C         140.4311  137.1919  163.7690 C.3     1  UNL1        0.1058
     16 C         139.0038  137.4666  163.3986 C.3     1  UNL1        0.0936
     17 N         138.5326  138.8800  163.2252 N.3     1  UNL1       -0.2690
     18 C         138.5265  139.7210  164.4674 C.3     1  UNL1        0.0748
     19 C         138.1160  141.1553  164.6237 C.3     1  UNL1        0.0494
     20 C         137.6104  142.1028  163.5766 C.3     1  UNL1        0.1437
     21 O         137.3902  141.8501  162.1145 O.3     1  UNL1       -0.3522
     22 C         137.6213  140.5874  161.3385 C.3     1  UNL1        0.1594
     23 C         138.1297  139.2656  161.8329 C.3     1  UNL1        0.1046
@<TRIPOS>BOND
     1     6     7    1
     2     7     8   ar
     3     8     9   ar
     4     9    10   ar
     5    10    11   ar
     6    11     1    1
     7     1     2   ar
     8     2     3   ar
     9     3    13    1
    10    13    15    1
    11    15    16    1
    12    16    17    1
    13    17    18    1
    14    18    19    1
    15    19    20    1
    16    20    21    1
    17    21    22    1
    18    22    23    1
    19     3     4   ar
    20     4     5   ar
    21    11    12   ar
    22    12     7   ar
    23     5     1   ar
    24    23    17    1
    25    13    14    1
@<TRIPOS>MOLECULE
*****
 23 25 0 0 0
SMALL
GASTEIGER

@<TRIPOS>ATOM
      1 N         138.4539  141.4186  162.9973 N.ar    1  UNL1       -0.2075
      2 C         138.8175  142.8000  163.4549 C.ar    1  UNL1        0.1378
      3 C         138.3662  143.7703  162.4038 C.ar    1  UNL1        0.1713
      4 N         137.7236  142.9885  161.2965 N.ar    1  UNL1       -0.1135
      5 N         137.7779  141.5350  161.6634 N.ar    1  UNL1       -0.0583
      6 F         140.7161  136.7482  163.2627 F       1  UNL1       -0.2041
      7 C         139.8508  137.8092  163.8755 C.ar    1  UNL1        0.1416
      8 C         139.2512  137.5959  165.2338 C.ar    1  UNL1        0.0297
      9 C         138.3859  138.6569  165.8467 C.ar    1  UNL1        0.0039
     10 C         138.1201  139.9311  165.1012 C.ar    1  UNL1        0.0193
     11 C         138.7197  140.1443  163.7428 C.ar    1  UNL1        0.0868
     12 C         139.5850  139.0834  163.1300 C.ar    1  UNL1        0.0488
     13 N         138.5288  145.2606  162.4514 N.pl3   1  UNL1       -0.3142
     14 H         137.7839  145.8276  162.7562 H       1  UNL1        0.1483
     15 C         139.8265  145.8872  162.0346 C.3     1  UNL1        0.1058
     16 C         141.1018  145.4989  162.7222 C.3     1  UNL1        0.0936
     17 N         142.0948  144.6205  162.0206 N.3     1  UNL1       -0.2690
     18 C         143.3205  144.2652  162.8089 C.3     1  UNL1        0.0748
     19 C         144.4850  143.4152  162.3948 C.3     1  UNL1        0.0494
     20 C         144.7113  142.7105  161.0902 C.3     1  UNL1        0.1437
     21 O         143.8291  142.6817  159.8774 O.3     1  UNL1       -0.3522
     22 C         142.5027  143.3506  159.6697 C.3     1  UNL1        0.1594
     23 C         141.7309  144.2134  160.6236 C.3     1  UNL1        0.1046
@<TRIPOS>BOND
     1     6     7    1
     2     7     8   ar
     3     8     9   ar
     4     9    10   ar
     5    10    11   ar
     6    11     1    1
     7     1     2   ar
     8     2     3   ar
     9     3    13    1
    10    13    15    1
    11    15    16    1
    12    16    17    1
    13    17    18    1
    14    18    19    1
    15    19    20    1
    16    20    21    1
    17    21    22    1
    18    22    23    1
    19     3     4   ar
    20     4     5   ar
    21    11    12   ar
    22    12     7   ar
    23     5     1   ar
    24    23    17    1
    25    13    14    1
@<TRIPOS>MOLECULE
*****
 23 25 0 0 0
SMALL
GASTEIGER

@<TRIPOS>ATOM
      1 N         140.5315  141.0070  166.1227 N.ar    1  UNL1       -0.2075
      2 C         139.6749  140.1279  165.2605 C.ar    1  UNL1        0.1378
      3 C         140.3304  140.0173  163.9158 C.ar    1  UNL1        0.1713
      4 N         141.5920  140.8281  163.9470 N.ar    1  UNL1       -0.1135
      5 N         141.7163  141.4398  165.3110 N.ar    1  UNL1       -0.0583
      6 F         140.6897  144.5061  169.9608 F       1  UNL1       -0.2041
      7 C         140.3314  143.1363  169.4659 C.ar    1  UNL1        0.1416
      8 C         139.6938  142.1461  170.3948 C.ar    1  UNL1        0.0297
      9 C         139.3355  140.7762  169.8999 C.ar    1  UNL1        0.0039
     10 C         139.6147  140.3965  168.4758 C.ar    1  UNL1        0.0193
     11 C         140.2523  141.3867  167.5468 C.ar    1  UNL1        0.0868
     12 C         140.6106  142.7565  168.0418 C.ar    1  UNL1        0.0488
     13 N         139.8148  139.2337  162.7454 N.pl3   1  UNL1       -0.3142
     14 H         140.4462  138.8147  162.1168 H       1  UNL1        0.1483
     15 C         138.3370  139.0882  162.5326 C.3     1  UNL1        0.1058
     16 C         137.5799  140.1434  161.7821 C.3     1  UNL1        0.0936
     17 N         138.0104  141.5779  161.8657 N.3     1  UNL1       -0.2690
     18 C         137.5122  142.3383  163.0589 C.3     1  UNL1        0.0748
     19 C         137.7627  143.7710  163.4263 C.3     1  UNL1        0.0494
     20 C         138.5732  144.7969  162.6912 C.3     1  UNL1        0.1437
     21 O         139.3334  144.6438  161.4072 O.3     1  UNL1       -0.3522
     22 C         139.4709  143.4267  160.5412 C.3     1  UNL1        0.1594
     23 C         138.8821  142.0623  160.7454 C.3     1  UNL1        0.1046
@<TRIPOS>BOND
     1     6     7    1
     2     7     8   ar
     3     8     9   ar
     4     9    10   ar
     5    10    11   ar
     6    11     1    1
     7     1     2   ar
     8     2     3   ar
     9     3    13    1
    10    13    15    1
    11    15    16    1
    12    16    17    1
    13    17    18    1
    14    18    19    1
    15    19    20    1
    16    20    21    1
    17    21    22    1
    18    22    23    1
    19     3     4   ar
    20     4     5   ar
    21    11    12   ar
    22    12     7   ar
    23     5     1   ar
    24    23    17    1
    25    13    14    1
@<TRIPOS>MOLECULE
*****
 23 25 0 0 0
SMALL
GASTEIGER

@<TRIPOS>ATOM
      1 N         141.9834  141.1307  166.1531 N.ar    1  UNL1       -0.2075
      2 C         143.0772  142.1097  165.8447 C.ar    1  UNL1        0.1378
      3 C         143.0998  142.3271  164.3607 C.ar    1  UNL1        0.1713
      4 N         142.0199  141.4824  163.7520 N.ar    1  UNL1       -0.1135
      5 N         141.3300  140.7430  164.8599 N.ar    1  UNL1       -0.0583
      6 F         138.4642  140.5799  169.9362 F       1  UNL1       -0.2041
      7 C         139.8493  140.3523  169.4073 C.ar    1  UNL1        0.1416
      8 C         140.8598  139.6216  170.2410 C.ar    1  UNL1        0.0297
      9 C         142.2449  139.3940  169.7121 C.ar    1  UNL1        0.0039
     10 C         142.6194  139.8970  168.3495 C.ar    1  UNL1        0.0193
     11 C         141.6089  140.6277  167.5158 C.ar    1  UNL1        0.0868
     12 C         140.2239  140.8553  168.0447 C.ar    1  UNL1        0.0488
     13 N         144.0374  143.2305  163.6160 N.pl3   1  UNL1       -0.3142
     14 H         144.9575  142.9363  163.4261 H       1  UNL1        0.1483
     15 C         143.5732  144.5823  163.1607 C.3     1  UNL1        0.1058
     16 C         142.3450  145.1962  163.7646 C.3     1  UNL1        0.0936
     17 N         140.9854  144.7660  163.2995 N.3     1  UNL1       -0.2690
     18 C         139.9117  144.7581  164.3470 C.3     1  UNL1        0.0748
     19 C         138.4665  144.3828  164.2022 C.3     1  UNL1        0.0494
     20 C         137.7384  143.9228  162.9742 C.3     1  UNL1        0.1437
     21 O         138.2752  143.7244  161.5877 O.3     1  UNL1       -0.3522
     22 C         139.6731  143.9370  161.0868 C.3     1  UNL1        0.1594
     23 C         140.8791  144.4006  161.8487 C.3     1  UNL1        0.1046
@<TRIPOS>BOND
     1     6     7    1
     2     7     8   ar
     3     8     9   ar
     4     9    10   ar
     5    10    11   ar
     6    11     1    1
     7     1     2   ar
     8     2     3   ar
     9     3    13    1
    10    13    15    1
    11    15    16    1
    12    16    17    1
    13    17    18    1
    14    18    19    1
    15    19    20    1
    16    20    21    1
    17    21    22    1
    18    22    23    1
    19     3     4   ar
    20     4     5   ar
    21    11    12   ar
    22    12     7   ar
    23     5     1   ar
    24    23    17    1
    25    13    14    1
@<TRIPOS>MOLECULE
*****
 23 25 0 0 0
SMALL
GASTEIGER

@<TRIPOS>ATOM
      1 N         143.3156  142.6785  164.0242 N.ar    1  UNL1       -0.2075
      2 C         142.6852  142.5651  162.6678 C.ar    1  UNL1        0.1378
      3 C         143.1505  143.7276  161.8418 C.ar    1  UNL1        0.1713
      4 N         144.0685  144.5593  162.6877 N.ar    1  UNL1       -0.1135
      5 N         144.1705  143.9109  164.0365 N.ar    1  UNL1       -0.0583
      6 F         143.1688  137.8185  165.8568 F       1  UNL1       -0.2041
      7 C         143.0512  139.2965  166.0839 C.ar    1  UNL1        0.1416
      8 C         142.7427  139.8226  167.4543 C.ar    1  UNL1        0.0297
      9 C         142.6251  141.3006  167.6814 C.ar    1  UNL1        0.0039
     10 C         142.8161  142.2526  166.5380 C.ar    1  UNL1        0.0193
     11 C         143.1246  141.7265  165.1675 C.ar    1  UNL1        0.0868
     12 C         143.2422  140.2485  164.9405 C.ar    1  UNL1        0.0488
     13 N         142.7654  144.0089  160.4197 N.pl3   1  UNL1       -0.3142
     14 H         143.4114  143.8495  159.6940 H       1  UNL1        0.1483
     15 C         141.3961  144.5332  160.1031 C.3     1  UNL1        0.1058
     16 C         140.5985  145.2351  161.1618 C.3     1  UNL1        0.0936
     17 N         139.6427  144.4592  162.0189 N.3     1  UNL1       -0.2690
     18 C         139.0364  143.2441  161.3816 C.3     1  UNL1        0.0748
     19 C         138.0573  142.2706  161.9680 C.3     1  UNL1        0.0494
     20 C         137.4427  142.2719  163.3362 C.3     1  UNL1        0.1437
     21 O         137.6553  143.2468  164.4561 O.3     1  UNL1       -0.3522
     22 C         138.5352  144.4613  164.4844 C.3     1  UNL1        0.1594
     23 C         139.4196  145.0008  163.3996 C.3     1  UNL1        0.1046
@<TRIPOS>BOND
     1     6     7    1
     2     7     8   ar
     3     8     9   ar
     4     9    10   ar
     5    10    11   ar
     6    11     1    1
     7     1     2   ar
     8     2     3   ar
     9     3    13    1
    10    13    15    1
    11    15    16    1
    12    16    17    1
    13    17    18    1
    14    18    19    1
    15    19    20    1
    16    20    21    1
    17    21    22    1
    18    22    23    1
    19     3     4   ar
    20     4     5   ar
    21    11    12   ar
    22    12     7   ar
    23     5     1   ar
    24    23    17    1
    25    13    14    1
