@<TRIPOS>MOLECULE
*****
 38 41 0 0 0
SMALL
GASTEIGER

@<TRIPOS>ATOM
      1 C         139.4494  139.6284  168.0784 C.3     1  UNL1        0.0325
      2 C         139.6473  140.8648  167.2524 C.ar    1  UNL1       -0.0031
      3 C         140.2488  142.0917  167.8711 C.ar    1  UNL1        0.0606
      4 C         140.4466  143.3281  167.0452 C.ar    1  UNL1        0.0153
      5 C         140.0430  143.3376  165.6006 C.ar    1  UNL1       -0.0008
      6 C         139.4415  142.1106  164.9819 C.ar    1  UNL1        0.0087
      7 C         139.2436  140.8742  165.8078 C.ar    1  UNL1        0.0489
      8 C         138.6305  139.8237  164.9301 C.2     1  UNL1        0.2493
      9 O         138.2630  138.4306  165.3475 O.2     1  UNL1       -0.2699
     10 N         138.4495  140.4107  163.5617 N.am    1  UNL1       -0.2620
     11 C         138.9507  141.8242  163.5937 C.3     1  UNL1        0.1753
     12 C         138.9595  142.7828  162.4401 C.2     1  UNL1        0.2448
     13 O         137.6742  143.1486  161.7589 O.2     1  UNL1       -0.2729
     14 N         140.2539  143.3759  161.9676 N.am    1  UNL1       -0.3059
     15 H         141.0975  143.1358  162.4146 H       1  UNL1        0.1494
     16 C         140.2627  144.3346  160.8140 C.3     1  UNL1        0.0569
     17 C         140.1067  145.4825  161.7669 C.3     1  UNL1        0.0196
     18 C         140.4187  143.1866  159.8612 C.3     1  UNL1        0.0196
     19 C         140.2716  145.2932  159.6604 C.3     1  UNL1        0.0196
     20 N         140.6524  142.0823  169.3158 N.pl3   1  UNL1       -0.2190
     21 H         139.9927  141.8534  170.0098 H       1  UNL1        0.1733
     22 S         142.0613  142.4215  169.7031 S.O2    1  UNL1        0.0558
     23 C         143.4702  142.7608  170.0904 C.3     1  UNL1        0.1996
     24 O         142.5409  141.1463  169.0755 O.2     1  UNL1       -0.1544
     25 O         141.5817  143.6967  170.3306 O.2     1  UNL1       -0.1544
     26 C         137.8691  139.7078  162.3704 C.3     1  UNL1        0.1212
     27 C         138.6098  139.7063  161.0661 C.ar    1  UNL1       -0.0023
     28 C         137.9137  140.1330  159.8077 C.ar    1  UNL1       -0.0026
     29 C         138.6544  140.1315  158.5034 C.ar    1  UNL1       -0.0003
     30 C         140.0912  139.7033  158.4573 C.ar    1  UNL1       -0.0000
     31 C         140.7874  139.2767  159.7156 C.ar    1  UNL1       -0.0003
     32 C         140.0467  139.2782  161.0200 C.ar    1  UNL1       -0.0024
     33 C         140.7429  138.8515  162.2783 C.ar    1  UNL1       -0.0003
     34 C         140.4873  137.4893  162.8519 C.ar    1  UNL1       -0.0000
     35 C         141.1835  137.0627  164.1101 C.ar    1  UNL1       -0.0000
     36 C         142.1353  137.9983  164.7949 C.ar    1  UNL1       -0.0000
     37 C         142.3908  139.3605  164.2213 C.ar    1  UNL1       -0.0000
     38 C         141.6946  139.7871  162.9630 C.ar    1  UNL1       -0.0000
@<TRIPOS>BOND
     1     1     2    1
     2     2     3   ar
     3     3    20    1
     4    20    22    1
     5    22    23    1
     6    22    24    2
     7    22    25    2
     8     3     4   ar
     9     4     5   ar
    10     5     6   ar
    11     6     7   ar
    12     7     8    1
    13     8     9    2
    14     8    10   am
    15    10    26    1
    16    26    27    1
    17    27    28   ar
    18    28    29   ar
    19    29    30   ar
    20    30    31   ar
    21    31    32   ar
    22    32    33    1
    23    33    34   ar
    24    34    35   ar
    25    35    36   ar
    26    36    37   ar
    27    37    38   ar
    28    10    11    1
    29    11    12    1
    30    12    13    2
    31    12    14   am
    32    14    16    1
    33    16    17    1
    34    16    18    1
    35    16    19    1
    36     7     2   ar
    37    32    27   ar
    38    38    33   ar
    39    11     6    1
    40    20    21    1
    41    14    15    1
@<TRIPOS>MOLECULE
*****
 38 41 0 0 0
SMALL
GASTEIGER

@<TRIPOS>ATOM
      1 C         139.3661  146.4008  161.1583 C.3     1  UNL1        0.0325
      2 C         140.2433  145.2005  160.9593 C.ar    1  UNL1       -0.0031
      3 C         140.8079  144.9009  159.6023 C.ar    1  UNL1        0.0606
      4 C         141.6851  143.7005  159.4033 C.ar    1  UNL1        0.0153
      5 C         141.9978  142.7998  160.5612 C.ar    1  UNL1       -0.0008
      6 C         141.4332  143.0994  161.9182 C.ar    1  UNL1        0.0087
      7 C         140.5560  144.2998  162.1172 C.ar    1  UNL1        0.0489
      8 C         140.1466  144.3406  163.5597 C.2     1  UNL1        0.2493
      9 O         139.2673  145.3749  164.1976 O.2     1  UNL1       -0.2699
     10 N         140.7708  143.1655  164.2522 N.am    1  UNL1       -0.2620
     11 C         141.5660  142.3984  163.2377 C.3     1  UNL1        0.1753
     12 C         142.3554  141.1496  163.4970 C.2     1  UNL1        0.2448
     13 O         142.1461  139.9380  162.6380 O.2     1  UNL1       -0.2729
     14 N         143.3542  141.1124  164.6156 N.am    1  UNL1       -0.3059
     15 H         143.4916  141.9076  165.1795 H       1  UNL1        0.1494
     16 C         144.1435  139.8635  164.8750 C.3     1  UNL1        0.0569
     17 C         143.0175  139.3247  165.7068 C.3     1  UNL1        0.0196
     18 C         145.2695  140.4025  164.0432 C.3     1  UNL1        0.0196
     19 C         144.9328  138.6148  165.1344 C.3     1  UNL1        0.0196
     20 N         140.4952  145.8016  158.4442 N.pl3   1  UNL1       -0.2190
     21 H         139.9163  146.5873  158.5740 H       1  UNL1        0.1733
     22 S         141.0646  145.5053  157.0885 S.O2    1  UNL1        0.0558
     23 C         141.6340  145.2089  155.7328 C.3     1  UNL1        0.1996
     24 O         142.3442  146.1845  157.4775 O.2     1  UNL1       -0.1544
     25 O         139.7850  144.8260  156.6996 O.2     1  UNL1       -0.1544
     26 C         140.6253  142.8185  165.7042 C.3     1  UNL1        0.1212
     27 C         139.8745  141.5846  166.1089 C.ar    1  UNL1       -0.0023
     28 C         138.9555  140.9119  165.1326 C.ar    1  UNL1       -0.0026
     29 C         138.2046  139.6780  165.5373 C.ar    1  UNL1       -0.0003
     30 C         138.3728  139.1168  166.9181 C.ar    1  UNL1       -0.0000
     31 C         139.2918  139.7894  167.8943 C.ar    1  UNL1       -0.0003
     32 C         140.0427  141.0234  167.4897 C.ar    1  UNL1       -0.0024
     33 C         140.9616  141.6960  168.4659 C.ar    1  UNL1       -0.0003
     34 C         142.3455  141.1603  168.6847 C.ar    1  UNL1       -0.0000
     35 C         143.2645  141.8329  169.6608 C.ar    1  UNL1       -0.0000
     36 C         142.7996  143.0413  170.4183 C.ar    1  UNL1       -0.0000
     37 C         141.4157  143.5770  170.1996 C.ar    1  UNL1       -0.0000
     38 C         140.4967  142.9043  169.2233 C.ar    1  UNL1       -0.0000
@<TRIPOS>BOND
     1     1     2    1
     2     2     3   ar
     3     3    20    1
     4    20    22    1
     5    22    23    1
     6    22    24    2
     7    22    25    2
     8     3     4   ar
     9     4     5   ar
    10     5     6   ar
    11     6     7   ar
    12     7     8    1
    13     8     9    2
    14     8    10   am
    15    10    26    1
    16    26    27    1
    17    27    28   ar
    18    28    29   ar
    19    29    30   ar
    20    30    31   ar
    21    31    32   ar
    22    32    33    1
    23    33    34   ar
    24    34    35   ar
    25    35    36   ar
    26    36    37   ar
    27    37    38   ar
    28    10    11    1
    29    11    12    1
    30    12    13    2
    31    12    14   am
    32    14    16    1
    33    16    17    1
    34    16    18    1
    35    16    19    1
    36     7     2   ar
    37    32    27   ar
    38    38    33   ar
    39    11     6    1
    40    20    21    1
    41    14    15    1
@<TRIPOS>MOLECULE
*****
 38 41 0 0 0
SMALL
GASTEIGER

@<TRIPOS>ATOM
      1 C         143.9592  141.5195  159.5523 C.3     1  UNL1        0.0325
      2 C         142.9398  140.6313  160.2020 C.ar    1  UNL1       -0.0031
      3 C         142.6491  139.2771  159.6262 C.ar    1  UNL1        0.0606
      4 C         141.6297  138.3890  160.2759 C.ar    1  UNL1        0.0153
      5 C         140.9011  138.8550  161.5014 C.ar    1  UNL1       -0.0008
      6 C         141.1918  140.2092  162.0772 C.ar    1  UNL1        0.0087
      7 C         142.2112  141.0974  161.4275 C.ar    1  UNL1        0.0489
      8 C         142.2857  142.3713  162.2158 C.2     1  UNL1        0.2493
      9 O         143.1771  143.5408  161.9192 O.2     1  UNL1       -0.2699
     10 N         141.3124  142.2706  163.3527 N.am    1  UNL1       -0.2620
     11 C         140.6364  140.9343  163.2670 C.3     1  UNL1        0.1753
     12 C         139.5888  140.4144  164.2063 C.2     1  UNL1        0.2448
     13 O         138.2336  141.0558  164.2476 O.2     1  UNL1       -0.2729
     14 N         139.8965  139.2529  165.1043 N.am    1  UNL1       -0.3059
     15 H         140.7860  138.8318  165.0772 H       1  UNL1        0.1494
     16 C         138.8489  138.7329  166.0435 C.3     1  UNL1        0.0569
     17 C         138.4771  137.6775  165.0445 C.3     1  UNL1        0.0196
     18 C         139.2207  139.7883  167.0425 C.3     1  UNL1        0.0196
     19 C         137.8013  138.2130  166.9827 C.3     1  UNL1        0.0196
     20 N         143.3778  138.8110  158.4007 N.pl3   1  UNL1       -0.2190
     21 H         144.3606  138.8556  158.3656 H       1  UNL1        0.1733
     22 S         142.6089  138.2770  157.2287 S.O2    1  UNL1        0.0558
     23 C         141.8400  137.7428  156.0566 C.3     1  UNL1        0.1996
     24 O         142.0277  139.6389  156.9894 O.2     1  UNL1       -0.1544
     25 O         143.1901  136.9150  157.4680 O.2     1  UNL1       -0.1544
     26 C         141.0596  143.3215  164.3927 C.3     1  UNL1        0.1212
     27 C         141.1495  142.9728  165.8488 C.ar    1  UNL1       -0.0023
     28 C         140.0350  143.3479  166.7801 C.ar    1  UNL1       -0.0026
     29 C         140.1249  142.9991  168.2361 C.ar    1  UNL1       -0.0003
     30 C         141.3292  142.2752  168.7610 C.ar    1  UNL1       -0.0000
     31 C         142.4437  141.9001  167.8298 C.ar    1  UNL1       -0.0003
     32 C         142.3538  142.2488  166.3736 C.ar    1  UNL1       -0.0024
     33 C         143.4683  141.8737  165.4424 C.ar    1  UNL1       -0.0003
     34 C         144.4491  142.9141  164.9891 C.ar    1  UNL1       -0.0000
     35 C         145.5636  142.5390  164.0578 C.ar    1  UNL1       -0.0000
     36 C         145.6973  141.1234  163.5799 C.ar    1  UNL1       -0.0000
     37 C         144.7165  140.0830  164.0333 C.ar    1  UNL1       -0.0000
     38 C         143.6019  140.4582  164.9646 C.ar    1  UNL1       -0.0000
@<TRIPOS>BOND
     1     1     2    1
     2     2     3   ar
     3     3    20    1
     4    20    22    1
     5    22    23    1
     6    22    24    2
     7    22    25    2
     8     3     4   ar
     9     4     5   ar
    10     5     6   ar
    11     6     7   ar
    12     7     8    1
    13     8     9    2
    14     8    10   am
    15    10    26    1
    16    26    27    1
    17    27    28   ar
    18    28    29   ar
    19    29    30   ar
    20    30    31   ar
    21    31    32   ar
    22    32    33    1
    23    33    34   ar
    24    34    35   ar
    25    35    36   ar
    26    36    37   ar
    27    37    38   ar
    28    10    11    1
    29    11    12    1
    30    12    13    2
    31    12    14   am
    32    14    16    1
    33    16    17    1
    34    16    18    1
    35    16    19    1
    36     7     2   ar
    37    32    27   ar
    38    38    33   ar
    39    11     6    1
    40    20    21    1
    41    14    15    1
@<TRIPOS>MOLECULE
*****
 38 41 0 0 0
SMALL
GASTEIGER

@<TRIPOS>ATOM
      1 C         142.9957  139.3891  168.2043 C.3     1  UNL1        0.0325
      2 C         141.7921  139.4863  167.3143 C.ar    1  UNL1       -0.0031
      3 C         140.4588  139.8556  167.8937 C.ar    1  UNL1        0.0606
      4 C         139.2553  139.9529  167.0037 C.ar    1  UNL1        0.0153
      5 C         139.3851  139.6809  165.5344 C.ar    1  UNL1       -0.0008
      6 C         140.7184  139.3116  164.9550 C.ar    1  UNL1        0.0087
      7 C         141.9220  139.2143  165.8449 C.ar    1  UNL1        0.0489
      8 C         143.0973  138.8321  164.9949 C.2     1  UNL1        0.2493
      9 O         144.5030  138.6252  165.4758 O.2     1  UNL1       -0.2699
     10 N         142.6202  138.6932  163.5796 N.am    1  UNL1       -0.2620
     11 C         141.1500  138.9895  163.5550 C.3     1  UNL1        0.1753
     12 C         140.2664  138.9676  162.3430 C.2     1  UNL1        0.2448
     13 O         140.0864  137.6955  161.5689 O.2     1  UNL1       -0.2729
     14 N         139.5627  140.2179  161.9052 N.am    1  UNL1       -0.3059
     15 H         139.6808  141.0529  162.4132 H       1  UNL1        0.1494
     16 C         138.6791  140.1960  160.6932 C.3     1  UNL1        0.0569
     17 C         139.8128  140.7120  159.8575 C.3     1  UNL1        0.0196
     18 C         137.5455  139.6800  161.5291 C.3     1  UNL1        0.0196
     19 C         137.7956  140.1741  159.4814 C.3     1  UNL1        0.0196
     20 N         140.3289  140.1277  169.3632 N.pl3   1  UNL1       -0.2190
     21 H         140.4295  139.3928  170.0106 H       1  UNL1        0.1733
     22 S         140.0459  141.5193  169.8461 S.O2    1  UNL1        0.0558
     23 C         139.7628  142.9109  170.3291 C.3     1  UNL1        0.1996
     24 O         141.3872  141.9660  169.3451 O.2     1  UNL1       -0.1544
     25 O         138.7045  141.0725  170.3472 O.2     1  UNL1       -0.1544
     26 C         143.4650  138.3229  162.3967 C.3     1  UNL1        0.1212
     27 C         143.3606  139.1106  161.1245 C.ar    1  UNL1       -0.0023
     28 C         143.0675  138.4104  159.8307 C.ar    1  UNL1       -0.0026
     29 C         142.9631  139.1981  158.5585 C.ar    1  UNL1       -0.0003
     30 C         143.1517  140.6861  158.5800 C.ar    1  UNL1       -0.0000
     31 C         143.4448  141.3863  159.8738 C.ar    1  UNL1       -0.0003
     32 C         143.5492  140.5986  161.1461 C.ar    1  UNL1       -0.0024
     33 C         143.8423  141.2988  162.4398 C.ar    1  UNL1       -0.0003
     34 C         142.7569  142.0570  163.1449 C.ar    1  UNL1       -0.0000
     35 C         143.0499  142.7572  164.4386 C.ar    1  UNL1       -0.0000
     36 C         144.4284  142.6992  165.0273 C.ar    1  UNL1       -0.0000
     37 C         145.5138  141.9410  164.3222 C.ar    1  UNL1       -0.0000
     38 C         145.2207  141.2408  163.0284 C.ar    1  UNL1       -0.0000
@<TRIPOS>BOND
     1     1     2    1
     2     2     3   ar
     3     3    20    1
     4    20    22    1
     5    22    23    1
     6    22    24    2
     7    22    25    2
     8     3     4   ar
     9     4     5   ar
    10     5     6   ar
    11     6     7   ar
    12     7     8    1
    13     8     9    2
    14     8    10   am
    15    10    26    1
    16    26    27    1
    17    27    28   ar
    18    28    29   ar
    19    29    30   ar
    20    30    31   ar
    21    31    32   ar
    22    32    33    1
    23    33    34   ar
    24    34    35   ar
    25    35    36   ar
    26    36    37   ar
    27    37    38   ar
    28    10    11    1
    29    11    12    1
    30    12    13    2
    31    12    14   am
    32    14    16    1
    33    16    17    1
    34    16    18    1
    35    16    19    1
    36     7     2   ar
    37    32    27   ar
    38    38    33   ar
    39    11     6    1
    40    20    21    1
    41    14    15    1
@<TRIPOS>MOLECULE
*****
 38 41 0 0 0
SMALL
GASTEIGER

@<TRIPOS>ATOM
      1 C         143.8011  141.2357  157.8512 C.3     1  UNL1        0.0325
      2 C         143.1382  140.3469  158.8615 C.ar    1  UNL1       -0.0031
      3 C         142.9429  138.8896  158.5650 C.ar    1  UNL1        0.0606
      4 C         142.2800  138.0009  159.5753 C.ar    1  UNL1        0.0153
      5 C         141.8124  138.5695  160.8822 C.ar    1  UNL1       -0.0008
      6 C         142.0077  140.0269  161.1787 C.ar    1  UNL1        0.0087
      7 C         142.6706  140.9156  160.1684 C.ar    1  UNL1        0.0489
      8 C         142.7258  142.3027  160.7366 C.2     1  UNL1        0.2493
      9 O         143.3077  143.5093  160.0618 O.2     1  UNL1       -0.2699
     10 N         142.0971  142.2713  162.0981 N.am    1  UNL1       -0.2620
     11 C         141.6533  140.8647  162.3713 C.3     1  UNL1        0.1753
     12 C         140.9742  140.3810  163.6183 C.2     1  UNL1        0.2448
     13 O         141.6596  140.5149  164.9457 O.2     1  UNL1       -0.2729
     14 N         139.6096  139.7632  163.5377 N.am    1  UNL1       -0.3059
     15 H         139.1597  139.6753  162.6664 H       1  UNL1        0.1494
     16 C         138.9305  139.2794  164.7846 C.3     1  UNL1        0.0569
     17 C         138.2612  140.6131  164.9374 C.3     1  UNL1        0.0196
     18 C         139.6000  137.9458  164.6318 C.3     1  UNL1        0.0196
     19 C         138.2515  138.7957  166.0315 C.3     1  UNL1        0.0196
     20 N         143.4106  138.3209  157.2581 N.pl3   1  UNL1       -0.2190
     21 H         144.2607  138.6245  156.8652 H       1  UNL1        0.1733
     22 S         142.5830  137.2897  156.5498 S.O2    1  UNL1        0.0558
     23 C         141.7553  136.2585  155.8415 C.3     1  UNL1        0.1996
     24 O         143.6274  136.2527  156.8391 O.2     1  UNL1       -0.1544
     25 O         141.5385  138.3267  156.2605 O.2     1  UNL1       -0.1544
     26 C         141.9399  143.4410  163.0239 C.3     1  UNL1        0.1212
     27 C         140.5964  143.7574  163.6111 C.ar    1  UNL1       -0.0023
     28 C         140.4108  143.7621  165.0997 C.ar    1  UNL1       -0.0026
     29 C         139.0673  144.0785  165.6869 C.ar    1  UNL1       -0.0003
     30 C         137.9094  144.3901  164.7858 C.ar    1  UNL1       -0.0000
     31 C         138.0949  144.3854  163.2973 C.ar    1  UNL1       -0.0003
     32 C         139.4385  144.0690  162.7100 C.ar    1  UNL1       -0.0024
     33 C         139.6240  144.0643  161.2215 C.ar    1  UNL1       -0.0003
     34 C         140.2455  145.2469  160.5395 C.ar    1  UNL1       -0.0000
     35 C         140.4311  145.2422  159.0510 C.ar    1  UNL1       -0.0000
     36 C         139.9951  144.0549  158.2446 C.ar    1  UNL1       -0.0000
     37 C         139.3736  142.8723  158.9267 C.ar    1  UNL1       -0.0000
     38 C         139.1881  142.8770  160.4152 C.ar    1  UNL1       -0.0000
@<TRIPOS>BOND
     1     1     2    1
     2     2     3   ar
     3     3    20    1
     4    20    22    1
     5    22    23    1
     6    22    24    2
     7    22    25    2
     8     3     4   ar
     9     4     5   ar
    10     5     6   ar
    11     6     7   ar
    12     7     8    1
    13     8     9    2
    14     8    10   am
    15    10    26    1
    16    26    27    1
    17    27    28   ar
    18    28    29   ar
    19    29    30   ar
    20    30    31   ar
    21    31    32   ar
    22    32    33    1
    23    33    34   ar
    24    34    35   ar
    25    35    36   ar
    26    36    37   ar
    27    37    38   ar
    28    10    11    1
    29    11    12    1
    30    12    13    2
    31    12    14   am
    32    14    16    1
    33    16    17    1
    34    16    18    1
    35    16    19    1
    36     7     2   ar
    37    32    27   ar
    38    38    33   ar
    39    11     6    1
    40    20    21    1
    41    14    15    1
@<TRIPOS>MOLECULE
*****
 38 41 0 0 0
SMALL
GASTEIGER

@<TRIPOS>ATOM
      1 C         142.7210  138.7575  167.9659 C.3     1  UNL1        0.0325
      2 C         142.5615  140.0765  167.2698 C.ar    1  UNL1       -0.0031
      3 C         142.7044  141.3543  168.0422 C.ar    1  UNL1        0.0606
      4 C         142.5450  142.6734  167.3461 C.ar    1  UNL1        0.0153
      5 C         142.2426  142.7147  165.8775 C.ar    1  UNL1       -0.0008
      6 C         142.0997  141.4369  165.1051 C.ar    1  UNL1        0.0087
      7 C         142.2592  140.1178  165.8012 C.ar    1  UNL1        0.0489
      8 C         142.0639  139.0313  164.7857 C.2     1  UNL1        0.2493
      9 O         142.1361  137.5561  165.0479 O.2     1  UNL1       -0.2699
     10 N         141.7838  139.6788  163.4619 N.am    1  UNL1       -0.2620
     11 C         141.8060  141.1655  163.6593 C.3     1  UNL1        0.1753
     12 C         141.5749  142.1995  162.5975 C.2     1  UNL1        0.2448
     13 O         142.4718  142.2547  161.3966 O.2     1  UNL1       -0.2729
     14 N         140.4467  143.1783  162.7366 N.am    1  UNL1       -0.3059
     15 H         139.8579  143.1421  163.5248 H       1  UNL1        0.1494
     16 C         140.2156  144.2123  161.6747 C.3     1  UNL1        0.0569
     17 C         141.1171  145.1633  162.4047 C.3     1  UNL1        0.0196
     18 C         139.3141  143.2612  160.9448 C.3     1  UNL1        0.0196
     19 C         139.9846  145.2461  160.6129 C.3     1  UNL1        0.0196
     20 N         143.0068  141.3131  169.5109 N.pl3   1  UNL1       -0.2190
     21 H         143.8923  141.0171  169.8231 H       1  UNL1        0.1733
     22 S         141.9600  141.7229  170.5040 S.O2    1  UNL1        0.0558
     23 C         140.9131  142.1327  171.4971 C.3     1  UNL1        0.1996
     24 O         141.3231  140.3695  170.3911 O.2     1  UNL1       -0.1544
     25 O         142.5969  143.0762  170.6169 O.2     1  UNL1       -0.1544
     26 C         141.5267  138.9648  162.1680 C.3     1  UNL1        0.1212
     27 C         140.3537  139.3529  161.3175 C.ar    1  UNL1       -0.0023
     28 C         140.5562  139.6931  159.8707 C.ar    1  UNL1       -0.0026
     29 C         139.3832  140.0812  159.0202 C.ar    1  UNL1       -0.0003
     30 C         138.0076  140.1290  159.6165 C.ar    1  UNL1       -0.0000
     31 C         137.8051  139.7889  161.0632 C.ar    1  UNL1       -0.0003
     32 C         138.9782  139.4008  161.9138 C.ar    1  UNL1       -0.0024
     33 C         138.7756  139.0606  163.3606 C.ar    1  UNL1       -0.0003
     34 C         138.4966  140.1485  164.3549 C.ar    1  UNL1       -0.0000
     35 C         138.2941  139.8083  165.8017 C.ar    1  UNL1       -0.0000
     36 C         138.3706  138.3802  166.2542 C.ar    1  UNL1       -0.0000
     37 C         138.6495  137.2923  165.2599 C.ar    1  UNL1       -0.0000
     38 C         138.8521  137.6326  163.8130 C.ar    1  UNL1       -0.0000
@<TRIPOS>BOND
     1     1     2    1
     2     2     3   ar
     3     3    20    1
     4    20    22    1
     5    22    23    1
     6    22    24    2
     7    22    25    2
     8     3     4   ar
     9     4     5   ar
    10     5     6   ar
    11     6     7   ar
    12     7     8    1
    13     8     9    2
    14     8    10   am
    15    10    26    1
    16    26    27    1
    17    27    28   ar
    18    28    29   ar
    19    29    30   ar
    20    30    31   ar
    21    31    32   ar
    22    32    33    1
    23    33    34   ar
    24    34    35   ar
    25    35    36   ar
    26    36    37   ar
    27    37    38   ar
    28    10    11    1
    29    11    12    1
    30    12    13    2
    31    12    14   am
    32    14    16    1
    33    16    17    1
    34    16    18    1
    35    16    19    1
    36     7     2   ar
    37    32    27   ar
    38    38    33   ar
    39    11     6    1
    40    20    21    1
    41    14    15    1
@<TRIPOS>MOLECULE
*****
 38 41 0 0 0
SMALL
GASTEIGER

@<TRIPOS>ATOM
      1 C         142.7750  139.1559  167.8752 C.3     1  UNL1        0.0325
      2 C         142.2354  140.4130  167.2599 C.ar    1  UNL1       -0.0031
      3 C         141.3802  141.3389  168.0731 C.ar    1  UNL1        0.0606
      4 C         140.8406  142.5959  167.4578 C.ar    1  UNL1        0.0153
      5 C         141.1561  142.9271  166.0292 C.ar    1  UNL1       -0.0008
      6 C         142.0113  142.0011  165.2160 C.ar    1  UNL1        0.0087
      7 C         142.5509  140.7441  165.8314 C.ar    1  UNL1        0.0489
      8 C         143.3605  140.0291  164.7905 C.2     1  UNL1        0.2493
      9 O         144.0826  138.7274  164.9758 O.2     1  UNL1       -0.2699
     10 N         143.3213  140.8442  163.5320 N.am    1  UNL1       -0.2620
     11 C         142.4874  142.0630  163.7949 C.3     1  UNL1        0.1753
     12 C         142.1830  143.1524  162.8098 C.2     1  UNL1        0.2448
     13 O         143.3000  143.9494  162.2040 O.2     1  UNL1       -0.2729
     14 N         140.7615  143.4449  162.4304 N.am    1  UNL1       -0.3059
     15 H         140.0283  142.9218  162.8280 H       1  UNL1        0.1494
     16 C         140.4571  144.5343  161.4453 C.3     1  UNL1        0.0569
     17 C         140.5003  143.5352  160.3272 C.3     1  UNL1        0.0196
     18 C         140.4139  145.5333  162.5633 C.3     1  UNL1        0.0196
     19 C         140.1528  145.6236  160.4601 C.3     1  UNL1        0.0196
     20 N         141.0647  141.0078  169.5017 N.pl3   1  UNL1       -0.2190
     21 H         141.7837  140.9932  170.1740 H       1  UNL1        0.1733
     22 S         139.6536  140.6988  169.9059 S.O2    1  UNL1        0.0558
     23 C         138.2425  140.3899  170.3102 C.3     1  UNL1        0.1996
     24 O         139.5960  139.6117  168.8740 O.2     1  UNL1       -0.1544
     25 O         139.7112  141.7859  170.9378 O.2     1  UNL1       -0.1544
     26 C         143.9972  140.5008  162.2377 C.3     1  UNL1        0.1212
     27 C         143.2287  140.5619  160.9509 C.ar    1  UNL1       -0.0023
     28 C         143.7973  141.2943  159.7718 C.ar    1  UNL1       -0.0026
     29 C         143.0289  141.3554  158.4851 C.ar    1  UNL1       -0.0003
     30 C         141.6918  140.6841  158.3774 C.ar    1  UNL1       -0.0000
     31 C         141.1232  139.9517  159.5565 C.ar    1  UNL1       -0.0003
     32 C         141.8917  139.8906  160.8433 C.ar    1  UNL1       -0.0024
     33 C         141.3230  139.1582  162.0223 C.ar    1  UNL1       -0.0003
     34 C         141.8535  137.8045  162.3915 C.ar    1  UNL1       -0.0000
     35 C         141.2849  137.0721  163.5705 C.ar    1  UNL1       -0.0000
     36 C         140.1858  137.6934  164.3805 C.ar    1  UNL1       -0.0000
     37 C         139.6553  139.0470  164.0114 C.ar    1  UNL1       -0.0000
     38 C         140.2240  139.7794  162.8323 C.ar    1  UNL1       -0.0000
@<TRIPOS>BOND
     1     1     2    1
     2     2     3   ar
     3     3    20    1
     4    20    22    1
     5    22    23    1
     6    22    24    2
     7    22    25    2
     8     3     4   ar
     9     4     5   ar
    10     5     6   ar
    11     6     7   ar
    12     7     8    1
    13     8     9    2
    14     8    10   am
    15    10    26    1
    16    26    27    1
    17    27    28   ar
    18    28    29   ar
    19    29    30   ar
    20    30    31   ar
    21    31    32   ar
    22    32    33    1
    23    33    34   ar
    24    34    35   ar
    25    35    36   ar
    26    36    37   ar
    27    37    38   ar
    28    10    11    1
    29    11    12    1
    30    12    13    2
    31    12    14   am
    32    14    16    1
    33    16    17    1
    34    16    18    1
    35    16    19    1
    36     7     2   ar
    37    32    27   ar
    38    38    33   ar
    39    11     6    1
    40    20    21    1
    41    14    15    1
@<TRIPOS>MOLECULE
*****
 38 41 0 0 0
SMALL
GASTEIGER

@<TRIPOS>ATOM
      1 C         140.7523  137.9648  157.2811 C.3     1  UNL1        0.0325
      2 C         141.6858  138.8817  158.0144 C.ar    1  UNL1       -0.0031
      3 C         143.0743  139.1104  157.4951 C.ar    1  UNL1        0.0606
      4 C         144.0078  140.0274  158.2284 C.ar    1  UNL1        0.0153
      5 C         143.5528  140.7157  159.4811 C.ar    1  UNL1       -0.0008
      6 C         142.1643  140.4870  160.0004 C.ar    1  UNL1        0.0087
      7 C         141.2308  139.5700  159.2671 C.ar    1  UNL1        0.0489
      8 C         139.9301  139.5391  160.0135 C.2     1  UNL1        0.2493
      9 O         138.7134  138.7490  159.6323 O.2     1  UNL1       -0.2699
     10 N         140.0597  140.4369  161.2082 N.am    1  UNL1       -0.2620
     11 C         141.4405  141.0227  161.2000 C.3     1  UNL1        0.1753
     12 C         141.9995  141.9768  162.2136 C.2     1  UNL1        0.2448
     13 O         142.1289  141.5568  163.6477 O.2     1  UNL1       -0.2729
     14 N         142.4290  143.3512  161.7930 N.am    1  UNL1       -0.3059
     15 H         142.3441  143.6269  160.8517 H       1  UNL1        0.1494
     16 C         142.9880  144.3053  162.8066 C.3     1  UNL1        0.0569
     17 C         141.6115  144.8467  163.0558 C.3     1  UNL1        0.0196
     18 C         144.3644  143.7637  162.5572 C.3     1  UNL1        0.0196
     19 C         143.5469  145.2593  163.8201 C.3     1  UNL1        0.0196
     20 N         143.5293  138.4221  156.2424 N.pl3   1  UNL1       -0.2190
     21 H         143.3307  137.4676  156.1052 H       1  UNL1        0.1733
     22 S         144.2870  139.1880  155.1987 S.O2    1  UNL1        0.0558
     23 C         145.0447  139.9539  154.1550 C.3     1  UNL1        0.1996
     24 O         143.0290  139.9090  154.8146 O.2     1  UNL1       -0.1544
     25 O         145.5449  138.4669  155.5827 O.2     1  UNL1       -0.1544
     26 C         138.9953  140.7023  162.2313 C.3     1  UNL1        0.1212
     27 C         138.8556  139.7983  163.4200 C.ar    1  UNL1       -0.0023
     28 C         138.8728  138.3096  163.2364 C.ar    1  UNL1       -0.0026
     29 C         138.7331  137.4056  164.4252 C.ar    1  UNL1       -0.0003
     30 C         138.5763  137.9902  165.7976 C.ar    1  UNL1       -0.0000
     31 C         138.5591  139.4788  165.9813 C.ar    1  UNL1       -0.0003
     32 C         138.6988  140.3829  164.7925 C.ar    1  UNL1       -0.0024
     33 C         138.6816  141.8715  164.9762 C.ar    1  UNL1       -0.0003
     34 C         137.6396  142.7004  164.2856 C.ar    1  UNL1       -0.0000
     35 C         137.6224  144.1890  164.4693 C.ar    1  UNL1       -0.0000
     36 C         138.6473  144.8487  165.3436 C.ar    1  UNL1       -0.0000
     37 C         139.6894  144.0198  166.0342 C.ar    1  UNL1       -0.0000
     38 C         139.7065  142.5311  165.8505 C.ar    1  UNL1       -0.0000
@<TRIPOS>BOND
     1     1     2    1
     2     2     3   ar
     3     3    20    1
     4    20    22    1
     5    22    23    1
     6    22    24    2
     7    22    25    2
     8     3     4   ar
     9     4     5   ar
    10     5     6   ar
    11     6     7   ar
    12     7     8    1
    13     8     9    2
    14     8    10   am
    15    10    26    1
    16    26    27    1
    17    27    28   ar
    18    28    29   ar
    19    29    30   ar
    20    30    31   ar
    21    31    32   ar
    22    32    33    1
    23    33    34   ar
    24    34    35   ar
    25    35    36   ar
    26    36    37   ar
    27    37    38   ar
    28    10    11    1
    29    11    12    1
    30    12    13    2
    31    12    14   am
    32    14    16    1
    33    16    17    1
    34    16    18    1
    35    16    19    1
    36     7     2   ar
    37    32    27   ar
    38    38    33   ar
    39    11     6    1
    40    20    21    1
    41    14    15    1
@<TRIPOS>MOLECULE
*****
 38 41 0 0 0
SMALL
GASTEIGER

@<TRIPOS>ATOM
      1 C         143.5167  139.9843  158.6613 C.3     1  UNL1        0.0325
      2 C         142.2261  139.4855  159.2406 C.ar    1  UNL1       -0.0031
      3 C         141.2611  138.7263  158.3789 C.ar    1  UNL1        0.0606
      4 C         139.9705  138.2275  158.9582 C.ar    1  UNL1        0.0153
      5 C         139.6448  138.4880  160.3990 C.ar    1  UNL1       -0.0008
      6 C         140.6098  139.2471  161.2606 C.ar    1  UNL1        0.0087
      7 C         141.9004  139.7459  160.6814 C.ar    1  UNL1        0.0489
      8 C         142.6502  140.4599  161.7667 C.2     1  UNL1        0.2493
      9 O         143.9918  141.1162  161.6266 O.2     1  UNL1       -0.2699
     10 N         141.8231  140.4024  163.0167 N.am    1  UNL1       -0.2620
     11 C         140.5620  139.6529  162.7039 C.3     1  UNL1        0.1753
     12 C         139.4486  139.3604  163.6656 C.2     1  UNL1        0.2448
     13 O         138.0221  139.5439  163.2397 O.2     1  UNL1       -0.2729
     14 N         139.7617  138.8844  165.0532 N.am    1  UNL1       -0.3059
     15 H         140.6980  138.7640  165.3328 H       1  UNL1        0.1494
     16 C         138.6483  138.5920  166.0149 C.3     1  UNL1        0.0569
     17 C         138.7389  139.9921  166.5455 C.3     1  UNL1        0.0196
     18 C         138.5578  137.1919  165.4843 C.3     1  UNL1        0.0196
     19 C         137.5349  138.2996  166.9765 C.3     1  UNL1        0.0196
     20 N         141.5867  138.4659  156.9380 N.pl3   1  UNL1       -0.2190
     21 H         141.7977  139.2169  156.3375 H       1  UNL1        0.1733
     22 S         141.5910  137.0611  156.4121 S.O2    1  UNL1        0.0558
     23 C         141.5952  135.6563  155.8862 C.3     1  UNL1        0.1996
     24 O         140.3816  137.3691  155.5799 O.2     1  UNL1       -0.1544
     25 O         142.8003  136.7532  157.2443 O.2     1  UNL1       -0.1544
     26 C         142.1922  140.9911  164.3461 C.3     1  UNL1        0.1212
     27 C         142.7503  142.3814  164.4218 C.ar    1  UNL1       -0.0023
     28 C         144.1480  142.6024  164.9195 C.ar    1  UNL1       -0.0026
     29 C         144.7060  143.9927  164.9952 C.ar    1  UNL1       -0.0003
     30 C         143.8665  145.1619  164.5731 C.ar    1  UNL1       -0.0000
     31 C         142.4689  144.9409  164.0754 C.ar    1  UNL1       -0.0003
     32 C         141.9107  143.5506  163.9997 C.ar    1  UNL1       -0.0024
     33 C         140.5131  143.3295  163.5020 C.ar    1  UNL1       -0.0003
     34 C         140.2427  143.2693  162.0278 C.ar    1  UNL1       -0.0000
     35 C         138.8451  143.0482  161.5301 C.ar    1  UNL1       -0.0000
     36 C         137.7178  142.8875  162.5066 C.ar    1  UNL1       -0.0000
     37 C         137.9882  142.9478  163.9808 C.ar    1  UNL1       -0.0000
     38 C         139.3859  143.1688  164.4785 C.ar    1  UNL1       -0.0000
@<TRIPOS>BOND
     1     1     2    1
     2     2     3   ar
     3     3    20    1
     4    20    22    1
     5    22    23    1
     6    22    24    2
     7    22    25    2
     8     3     4   ar
     9     4     5   ar
    10     5     6   ar
    11     6     7   ar
    12     7     8    1
    13     8     9    2
    14     8    10   am
    15    10    26    1
    16    26    27    1
    17    27    28   ar
    18    28    29   ar
    19    29    30   ar
    20    30    31   ar
    21    31    32   ar
    22    32    33    1
    23    33    34   ar
    24    34    35   ar
    25    35    36   ar
    26    36    37   ar
    27    37    38   ar
    28    10    11    1
    29    11    12    1
    30    12    13    2
    31    12    14   am
    32    14    16    1
    33    16    17    1
    34    16    18    1
    35    16    19    1
    36     7     2   ar
    37    32    27   ar
    38    38    33   ar
    39    11     6    1
    40    20    21    1
    41    14    15    1
