@<TRIPOS>MOLECULE
*****
 33 37 0 0 0
SMALL
GASTEIGER

@<TRIPOS>ATOM
      1 C         138.7042  139.9068  164.9636 C.ar    1  UNL1        0.0017
      2 C         137.9313  139.0684  165.9380 C.ar    1  UNL1        0.0016
      3 C         138.3038  139.0720  167.3910 C.ar    1  UNL1        0.0192
      4 C         139.4493  139.9139  167.8695 C.ar    1  UNL1        0.0857
      5 N         139.8218  139.9175  169.3226 N.ar    1  UNL1       -0.2239
      6 C         140.9673  140.7594  169.8011 C.ar    1  UNL1        0.2000
      7 N         141.7402  141.5979  168.8265 N.ar    1  UNL1       -0.2090
      8 C         141.3677  141.5943  167.3736 C.ar    1  UNL1        0.1348
      9 C         140.2222  140.7524  166.8951 C.ar    1  UNL1        0.0493
     10 C         139.8497  140.7488  165.4421 C.ar    1  UNL1        0.0043
     11 C         137.5866  139.8963  160.6045 C.ar    1  UNL1        0.2250
     12 C         138.1597  138.6617  161.2348 C.ar    1  UNL1        0.0577
     13 C         138.5323  138.6652  162.6879 C.ar    1  UNL1        0.0063
     14 C         138.3317  139.9033  163.5105 C.ar    1  UNL1        0.0194
     15 C         137.7586  141.1379  162.8802 C.ar    1  UNL1        0.1020
     16 N         137.3860  141.1344  161.4273 N.ar    1  UNL1       -0.2101
     17 C         138.0890  140.5886  158.1514 C.3     1  UNL1        0.2542
     18 O         137.2141  139.8928  159.1516 O.3     1  UNL1       -0.4561
     19 N         142.1406  142.4327  166.3991 N.pl3   1  UNL1       -0.2927
     20 C         143.6240  142.5902  166.5567 C.3     1  UNL1        0.0922
     21 C         144.3969  143.4287  165.5822 C.3     1  UNL1        0.0220
     22 C         143.6865  144.1096  164.4502 C.3     1  UNL1        0.0126
     23 C         142.2031  143.9522  164.2926 C.3     1  UNL1        0.0965
     24 C         141.4302  143.1137  165.2670 C.3     1  UNL1        0.1012
     25 C         141.4927  144.6332  163.1605 C.2     1  UNL1        0.2269
     26 O         140.3861  145.6048  163.4457 O.2     1  UNL1       -0.2748
     27 N         141.8888  144.3425  161.7433 N.am    1  UNL1       -0.2766
     28 C         142.9954  143.3708  161.4581 C.3     1  UNL1        0.1107
     29 C         143.3916  143.0802  160.0409 C.3     1  UNL1        0.0939
     30 N         142.6811  143.7611  158.9088 N.3     1  UNL1       -0.2686
     31 C         143.0773  143.4705  157.4916 C.3     1  UNL1        0.0897
     32 C         141.5745  144.7328  159.1939 C.3     1  UNL1        0.0939
     33 C         141.1784  145.0235  160.6112 C.3     1  UNL1        0.1107
@<TRIPOS>BOND
     1    17    18    1
     2    18    11    1
     3    11    12   ar
     4    12    13   ar
     5    13    14   ar
     6    14     1    1
     7     1     2   ar
     8     2     3   ar
     9     3     4   ar
    10     4     5   ar
    11     5     6   ar
    12     6     7   ar
    13     7     8   ar
    14     8    19    1
    15    19    20    1
    16    20    21    1
    17    21    22    1
    18    22    23    1
    19    23    25    1
    20    25    26    2
    21    25    27   am
    22    27    28    1
    23    28    29    1
    24    29    30    1
    25    30    31    1
    26    30    32    1
    27    32    33    1
    28    23    24    1
    29     8     9   ar
    30     9    10   ar
    31    14    15   ar
    32    15    16   ar
    33    16    11   ar
    34    10     1   ar
    35     9     4   ar
    36    24    19    1
    37    33    27    1
@<TRIPOS>MOLECULE
*****
 33 37 0 0 0
SMALL
GASTEIGER

@<TRIPOS>ATOM
      1 C         138.8234  139.8517  165.1194 C.ar    1  UNL1        0.0017
      2 C         137.9372  139.2506  166.1698 C.ar    1  UNL1        0.0016
      3 C         138.3747  139.2410  167.6045 C.ar    1  UNL1        0.0192
      4 C         139.6985  139.8325  167.9888 C.ar    1  UNL1        0.0857
      5 N         140.1360  139.8228  169.4236 N.ar    1  UNL1       -0.2239
      6 C         141.4598  140.4143  169.8080 C.ar    1  UNL1        0.2000
      7 N         142.3461  141.0154  168.7576 N.ar    1  UNL1       -0.2090
      8 C         141.9085  141.0250  167.3229 C.ar    1  UNL1        0.1348
      9 C         140.5848  140.4335  166.9385 C.ar    1  UNL1        0.0493
     10 C         140.1472  140.4431  165.5038 C.ar    1  UNL1        0.0043
     11 C         137.5109  139.8806  160.8151 C.ar    1  UNL1        0.2250
     12 C         138.0187  138.6130  161.4358 C.ar    1  UNL1        0.0577
     13 C         138.4562  138.6034  162.8706 C.ar    1  UNL1        0.0063
     14 C         138.3859  139.8613  163.6846 C.ar    1  UNL1        0.0194
     15 C         137.8781  141.1289  163.0639 C.ar    1  UNL1        0.1020
     16 N         137.4405  141.1385  161.6292 N.ar    1  UNL1       -0.2101
     17 C         137.8260  140.7071  158.3723 C.3     1  UNL1        0.2542
     18 O         137.0734  139.8902  159.3804 O.3     1  UNL1       -0.4561
     19 N         142.7948  141.6261  166.2726 N.pl3   1  UNL1       -0.2927
     20 C         143.6263  142.8326  166.5935 C.3     1  UNL1        0.0922
     21 C         144.5126  143.4336  165.5431 C.3     1  UNL1        0.0220
     22 C         144.5673  142.8283  164.1718 C.3     1  UNL1        0.0126
     23 C         143.7358  141.6218  163.8509 C.3     1  UNL1        0.0965
     24 C         142.8495  141.0207  164.9012 C.3     1  UNL1        0.1012
     25 C         143.7905  141.0164  162.4795 C.2     1  UNL1        0.2269
     26 O         144.6539  139.8169  162.2231 O.2     1  UNL1       -0.2748
     27 N         142.9819  141.6106  161.3645 N.am    1  UNL1       -0.2766
     28 C         142.1186  142.8101  161.6209 C.3     1  UNL1        0.1107
     29 C         141.3100  143.4043  160.5060 C.3     1  UNL1        0.0939
     30 N         141.3648  142.7989  159.1346 N.3     1  UNL1       -0.2686
     31 C         140.5562  143.3930  158.0196 C.3     1  UNL1        0.0897
     32 C         142.2281  141.5994  158.8782 C.3     1  UNL1        0.0939
     33 C         143.0367  141.0052  159.9933 C.3     1  UNL1        0.1107
@<TRIPOS>BOND
     1    17    18    1
     2    18    11    1
     3    11    12   ar
     4    12    13   ar
     5    13    14   ar
     6    14     1    1
     7     1     2   ar
     8     2     3   ar
     9     3     4   ar
    10     4     5   ar
    11     5     6   ar
    12     6     7   ar
    13     7     8   ar
    14     8    19    1
    15    19    20    1
    16    20    21    1
    17    21    22    1
    18    22    23    1
    19    23    25    1
    20    25    26    2
    21    25    27   am
    22    27    28    1
    23    28    29    1
    24    29    30    1
    25    30    31    1
    26    30    32    1
    27    32    33    1
    28    23    24    1
    29     8     9   ar
    30     9    10   ar
    31    14    15   ar
    32    15    16   ar
    33    16    11   ar
    34    10     1   ar
    35     9     4   ar
    36    24    19    1
    37    33    27    1
@<TRIPOS>MOLECULE
*****
 33 37 0 0 0
SMALL
GASTEIGER

@<TRIPOS>ATOM
      1 C         140.6082  140.5558  167.5436 C.ar    1  UNL1        0.0017
      2 C         139.3014  139.9459  167.9562 C.ar    1  UNL1        0.0016
      3 C         138.5676  139.0372  167.0151 C.ar    1  UNL1        0.0192
      4 C         139.1406  138.7384  165.6615 C.ar    1  UNL1        0.0857
      5 N         138.4066  137.8296  164.7204 N.ar    1  UNL1       -0.2239
      6 C         138.9796  137.5307  163.3667 C.ar    1  UNL1        0.2000
      7 N         140.2865  138.1406  162.9542 N.ar    1  UNL1       -0.2090
      8 C         141.0203  139.0493  163.8952 C.ar    1  UNL1        0.1348
      9 C         140.4474  139.3482  165.2489 C.ar    1  UNL1        0.0493
     10 C         141.1812  140.2569  166.1899 C.ar    1  UNL1        0.0043
     11 C         142.8099  143.2821  170.3668 C.ar    1  UNL1        0.2250
     12 C         143.5740  142.3329  169.4921 C.ar    1  UNL1        0.0577
     13 C         142.8401  141.4241  168.5510 C.ar    1  UNL1        0.0063
     14 C         141.3422  141.4646  168.4847 C.ar    1  UNL1        0.0194
     15 C         140.5780  142.4137  169.3594 C.ar    1  UNL1        0.1020
     16 N         141.3119  143.3225  170.3005 N.ar    1  UNL1       -0.2101
     17 C         145.0330  144.3354  171.2023 C.3     1  UNL1        0.2542
     18 O         143.5438  144.1908  171.3079 O.3     1  UNL1       -0.4561
     19 N         142.3271  139.6592  163.4826 N.pl3   1  UNL1       -0.2927
     20 C         143.6044  139.1983  164.1200 C.3     1  UNL1        0.0922
     21 C         144.9112  139.8082  163.7074 C.3     1  UNL1        0.0220
     22 C         144.9408  140.8790  162.6574 C.3     1  UNL1        0.0126
     23 C         143.6636  141.3399  162.0200 C.3     1  UNL1        0.0965
     24 C         142.3568  140.7300  162.4326 C.3     1  UNL1        0.1012
     25 C         143.6933  142.4107  160.9699 C.2     1  UNL1        0.2269
     26 O         143.6799  143.8558  161.3719 O.2     1  UNL1       -0.2748
     27 N         143.7363  142.0364  159.5181 N.am    1  UNL1       -0.2766
     28 C         143.7497  140.5913  159.1161 C.3     1  UNL1        0.1107
     29 C         143.7927  140.2170  157.6643 C.3     1  UNL1        0.0939
     30 N         143.8223  141.2878  156.6142 N.3     1  UNL1       -0.2686
     31 C         143.8654  140.9136  155.1623 C.3     1  UNL1        0.0897
     32 C         143.8090  142.7329  157.0161 C.3     1  UNL1        0.0939
     33 C         143.7659  143.1072  158.4681 C.3     1  UNL1        0.1107
@<TRIPOS>BOND
     1    17    18    1
     2    18    11    1
     3    11    12   ar
     4    12    13   ar
     5    13    14   ar
     6    14     1    1
     7     1     2   ar
     8     2     3   ar
     9     3     4   ar
    10     4     5   ar
    11     5     6   ar
    12     6     7   ar
    13     7     8   ar
    14     8    19    1
    15    19    20    1
    16    20    21    1
    17    21    22    1
    18    22    23    1
    19    23    25    1
    20    25    26    2
    21    25    27   am
    22    27    28    1
    23    28    29    1
    24    29    30    1
    25    30    31    1
    26    30    32    1
    27    32    33    1
    28    23    24    1
    29     8     9   ar
    30     9    10   ar
    31    14    15   ar
    32    15    16   ar
    33    16    11   ar
    34    10     1   ar
    35     9     4   ar
    36    24    19    1
    37    33    27    1
@<TRIPOS>MOLECULE
*****
 33 37 0 0 0
SMALL
GASTEIGER

@<TRIPOS>ATOM
      1 C         142.9390  139.6391  164.2394 C.ar    1  UNL1        0.0017
      2 C         143.6773  138.7070  165.1538 C.ar    1  UNL1        0.0016
      3 C         143.3720  138.6989  166.6223 C.ar    1  UNL1        0.0192
      4 C         142.3284  139.6229  167.1765 C.ar    1  UNL1        0.0857
      5 N         142.0231  139.6148  168.6451 N.ar    1  UNL1       -0.2239
      6 C         140.9795  140.5388  169.1993 C.ar    1  UNL1        0.2000
      7 N         140.2412  141.4709  168.2849 N.ar    1  UNL1       -0.2090
      8 C         140.5465  141.4790  166.8163 C.ar    1  UNL1        0.1348
      9 C         141.5901  140.5550  166.2621 C.ar    1  UNL1        0.0493
     10 C         141.8954  140.5631  164.7936 C.ar    1  UNL1        0.0043
     11 C         143.8550  139.6634  159.8336 C.ar    1  UNL1        0.2250
     12 C         143.2371  140.8689  160.4779 C.ar    1  UNL1        0.0577
     13 C         142.9318  140.8608  161.9465 C.ar    1  UNL1        0.0063
     14 C         143.2444  139.6472  162.7708 C.ar    1  UNL1        0.0194
     15 C         143.8622  138.4418  162.1266 C.ar    1  UNL1        0.1020
     16 N         144.1676  138.4498  160.6580 N.ar    1  UNL1       -0.2101
     17 C         144.5317  140.9550  157.6834 C.3     1  UNL1        0.2542
     18 O         144.1603  139.6715  158.3651 O.3     1  UNL1       -0.4561
     19 N         139.8083  142.4111  165.9020 N.pl3   1  UNL1       -0.2927
     20 C         139.5274  143.8198  166.3343 C.3     1  UNL1        0.0922
     21 C         138.7891  144.7519  165.4199 C.3     1  UNL1        0.0220
     22 C         138.3317  144.2754  164.0732 C.3     1  UNL1        0.0126
     23 C         138.6126  142.8667  163.6408 C.3     1  UNL1        0.0965
     24 C         139.3508  141.9346  164.5552 C.3     1  UNL1        0.1012
     25 C         138.1551  142.3903  162.2940 C.2     1  UNL1        0.2269
     26 O         137.0472  141.3843  162.1909 O.2     1  UNL1       -0.2748
     27 N         138.8055  142.9197  161.0504 N.am    1  UNL1       -0.2766
     28 C         139.9134  143.9257  161.1535 C.3     1  UNL1        0.1107
     29 C         140.5638  144.4552  159.9100 C.3     1  UNL1        0.0939
     30 N         140.1064  143.9787  158.5632 N.3     1  UNL1       -0.2686
     31 C         140.7568  144.5082  157.3196 C.3     1  UNL1        0.0897
     32 C         138.9985  142.9727  158.4600 C.3     1  UNL1        0.0939
     33 C         138.3481  142.4432  159.7037 C.3     1  UNL1        0.1107
@<TRIPOS>BOND
     1    17    18    1
     2    18    11    1
     3    11    12   ar
     4    12    13   ar
     5    13    14   ar
     6    14     1    1
     7     1     2   ar
     8     2     3   ar
     9     3     4   ar
    10     4     5   ar
    11     5     6   ar
    12     6     7   ar
    13     7     8   ar
    14     8    19    1
    15    19    20    1
    16    20    21    1
    17    21    22    1
    18    22    23    1
    19    23    25    1
    20    25    26    2
    21    25    27   am
    22    27    28    1
    23    28    29    1
    24    29    30    1
    25    30    31    1
    26    30    32    1
    27    32    33    1
    28    23    24    1
    29     8     9   ar
    30     9    10   ar
    31    14    15   ar
    32    15    16   ar
    33    16    11   ar
    34    10     1   ar
    35     9     4   ar
    36    24    19    1
    37    33    27    1
@<TRIPOS>MOLECULE
*****
 33 37 0 0 0
SMALL
GASTEIGER

@<TRIPOS>ATOM
      1 C         140.2010  143.1099  165.5812 C.ar    1  UNL1        0.0017
      2 C         139.1309  144.1541  165.7007 C.ar    1  UNL1        0.0016
      3 C         138.8237  145.0497  164.5373 C.ar    1  UNL1        0.0192
      4 C         139.5865  144.9009  163.2544 C.ar    1  UNL1        0.0857
      5 N         139.2792  145.7965  162.0909 N.ar    1  UNL1       -0.2239
      6 C         140.0421  145.6477  160.8080 C.ar    1  UNL1        0.2000
      7 N         141.1122  144.6034  160.6885 N.ar    1  UNL1       -0.2090
      8 C         141.4194  143.7079  161.8519 C.ar    1  UNL1        0.1348
      9 C         140.6566  143.8566  163.1348 C.ar    1  UNL1        0.0493
     10 C         140.9639  142.9611  164.2983 C.ar    1  UNL1        0.0043
     11 C         141.1229  140.4231  169.0715 C.ar    1  UNL1        0.2250
     12 C         140.7682  141.8616  169.3056 C.ar    1  UNL1        0.0577
     13 C         140.4609  142.7572  168.1421 C.ar    1  UNL1        0.0063
     14 C         140.5083  142.2143  166.7447 C.ar    1  UNL1        0.0194
     15 C         140.8631  140.7757  166.5106 C.ar    1  UNL1        0.1020
     16 N         141.1704  139.8801  167.6739 N.ar    1  UNL1       -0.2101
     17 C         142.6026  138.5939  170.1734 C.3     1  UNL1        0.2542
     18 O         141.4302  139.5275  170.2348 O.3     1  UNL1       -0.4561
     19 N         142.4895  142.6636  161.7324 N.pl3   1  UNL1       -0.2927
     20 C         143.8809  142.9574  162.2096 C.3     1  UNL1        0.0922
     21 C         144.9510  141.9130  162.0900 C.3     1  UNL1        0.0220
     22 C         144.6297  140.5749  161.4933 C.3     1  UNL1        0.0126
     23 C         143.2384  140.2811  161.0160 C.3     1  UNL1        0.0965
     24 C         142.1683  141.3254  161.1356 C.3     1  UNL1        0.1012
     25 C         142.9171  138.9429  160.4192 C.2     1  UNL1        0.2269
     26 O         142.5152  137.8027  161.3072 O.2     1  UNL1       -0.2748
     27 N         142.9977  138.7449  158.9346 N.am    1  UNL1       -0.2766
     28 C         143.3996  139.8851  158.0466 C.3     1  UNL1        0.1107
     29 C         143.4802  139.6872  156.5620 C.3     1  UNL1        0.0939
     30 N         143.1590  138.3490  155.9652 N.3     1  UNL1       -0.2686
     31 C         143.2396  138.1510  154.4805 C.3     1  UNL1        0.0897
     32 C         142.7571  137.2088  156.8531 C.3     1  UNL1        0.0939
     33 C         142.6765  137.4068  158.3379 C.3     1  UNL1        0.1107
@<TRIPOS>BOND
     1    17    18    1
     2    18    11    1
     3    11    12   ar
     4    12    13   ar
     5    13    14   ar
     6    14     1    1
     7     1     2   ar
     8     2     3   ar
     9     3     4   ar
    10     4     5   ar
    11     5     6   ar
    12     6     7   ar
    13     7     8   ar
    14     8    19    1
    15    19    20    1
    16    20    21    1
    17    21    22    1
    18    22    23    1
    19    23    25    1
    20    25    26    2
    21    25    27   am
    22    27    28    1
    23    28    29    1
    24    29    30    1
    25    30    31    1
    26    30    32    1
    27    32    33    1
    28    23    24    1
    29     8     9   ar
    30     9    10   ar
    31    14    15   ar
    32    15    16   ar
    33    16    11   ar
    34    10     1   ar
    35     9     4   ar
    36    24    19    1
    37    33    27    1
@<TRIPOS>MOLECULE
*****
 33 37 0 0 0
SMALL
GASTEIGER

@<TRIPOS>ATOM
      1 C         139.1074  139.4965  164.5456 C.ar    1  UNL1        0.0017
      2 C         138.1972  138.7060  165.4381 C.ar    1  UNL1        0.0016
      3 C         138.2643  138.8853  166.9258 C.ar    1  UNL1        0.0192
      4 C         139.2416  139.8552  167.5210 C.ar    1  UNL1        0.0857
      5 N         139.3087  140.0345  169.0088 N.ar    1  UNL1       -0.2239
      6 C         140.2860  141.0043  169.6040 C.ar    1  UNL1        0.2000
      7 N         141.1963  141.7949  168.7114 N.ar    1  UNL1       -0.2090
      8 C         141.1292  141.6155  167.2237 C.ar    1  UNL1        0.1348
      9 C         140.1518  140.6457  166.6285 C.ar    1  UNL1        0.0493
     10 C         140.0847  140.4663  165.1408 C.ar    1  UNL1        0.0043
     11 C         138.9062  138.9585  160.0823 C.ar    1  UNL1        0.2250
     12 C         137.9735  139.9142  160.7654 C.ar    1  UNL1        0.0577
     13 C         138.0405  140.0935  162.2531 C.ar    1  UNL1        0.0063
     14 C         139.0403  139.3172  163.0578 C.ar    1  UNL1        0.0194
     15 C         139.9731  138.3614  162.3748 C.ar    1  UNL1        0.1020
     16 N         139.9061  138.1821  160.8871 N.ar    1  UNL1       -0.2101
     17 C         140.0958  138.8219  157.7767 C.3     1  UNL1        0.2542
     18 O         138.8392  138.7791  158.5946 O.3     1  UNL1       -0.4561
     19 N         142.0394  142.4060  166.3312 N.pl3   1  UNL1       -0.2927
     20 C         143.5143  142.4369  166.6023 C.3     1  UNL1        0.0922
     21 C         144.4246  143.2274  165.7097 C.3     1  UNL1        0.0220
     22 C         143.8598  143.9870  164.5462 C.3     1  UNL1        0.0126
     23 C         142.3848  143.9562  164.2751 C.3     1  UNL1        0.0965
     24 C         141.4746  143.1657  165.1676 C.3     1  UNL1        0.1012
     25 C         141.8201  144.7158  163.1114 C.2     1  UNL1        0.2269
     26 O         141.2491  146.0876  163.3172 O.2     1  UNL1       -0.2748
     27 N         141.8263  144.1038  161.7420 N.am    1  UNL1       -0.2766
     28 C         142.3973  142.7321  161.5362 C.3     1  UNL1        0.1107
     29 C         142.4035  142.1200  160.1668 C.3     1  UNL1        0.0939
     30 N         141.8388  142.8797  159.0031 N.3     1  UNL1       -0.2686
     31 C         141.8450  142.2676  157.6337 C.3     1  UNL1        0.0897
     32 C         141.2678  144.2514  159.2089 C.3     1  UNL1        0.0939
     33 C         141.2616  144.8635  160.5784 C.3     1  UNL1        0.1107
@<TRIPOS>BOND
     1    17    18    1
     2    18    11    1
     3    11    12   ar
     4    12    13   ar
     5    13    14   ar
     6    14     1    1
     7     1     2   ar
     8     2     3   ar
     9     3     4   ar
    10     4     5   ar
    11     5     6   ar
    12     6     7   ar
    13     7     8   ar
    14     8    19    1
    15    19    20    1
    16    20    21    1
    17    21    22    1
    18    22    23    1
    19    23    25    1
    20    25    26    2
    21    25    27   am
    22    27    28    1
    23    28    29    1
    24    29    30    1
    25    30    31    1
    26    30    32    1
    27    32    33    1
    28    23    24    1
    29     8     9   ar
    30     9    10   ar
    31    14    15   ar
    32    15    16   ar
    33    16    11   ar
    34    10     1   ar
    35     9     4   ar
    36    24    19    1
    37    33    27    1
@<TRIPOS>MOLECULE
*****
 33 37 0 0 0
SMALL
GASTEIGER

@<TRIPOS>ATOM
      1 C         140.2451  138.6218  162.9893 C.ar    1  UNL1        0.0017
      2 C         139.3805  137.5899  163.6507 C.ar    1  UNL1        0.0016
      3 C         138.9838  137.7534  165.0880 C.ar    1  UNL1        0.0192
      4 C         139.4517  138.9489  165.8639 C.ar    1  UNL1        0.0857
      5 N         139.0550  139.1124  167.3013 N.ar    1  UNL1       -0.2239
      6 C         139.5229  140.3078  168.0771 C.ar    1  UNL1        0.2000
      7 N         140.3876  141.3397  167.4157 N.ar    1  UNL1       -0.2090
      8 C         140.7843  141.1762  165.9784 C.ar    1  UNL1        0.1348
      9 C         140.3164  139.9808  165.2025 C.ar    1  UNL1        0.0493
     10 C         140.7131  139.8172  163.7652 C.ar    1  UNL1        0.0043
     11 C         141.4353  138.1314  158.6773 C.ar    1  UNL1        0.2250
     12 C         142.4677  138.0099  159.7588 C.ar    1  UNL1        0.0577
     13 C         142.0709  138.1734  161.1961 C.ar    1  UNL1        0.0063
     14 C         140.6419  138.4583  161.5520 C.ar    1  UNL1        0.0194
     15 C         139.6096  138.5798  160.4705 C.ar    1  UNL1        0.1020
     16 N         140.0063  138.4163  159.0332 N.ar    1  UNL1       -0.2101
     17 C         142.6471  136.7818  156.8172 C.3     1  UNL1        0.2542
     18 O         141.8320  137.9679  157.2400 O.3     1  UNL1       -0.4561
     19 N         141.6490  142.2081  165.3170 N.pl3   1  UNL1       -0.2927
     20 C         143.0479  142.4398  165.8063 C.3     1  UNL1        0.0922
     21 C         143.9125  143.4718  165.1448 C.3     1  UNL1        0.0220
     22 C         143.3783  144.2720  163.9941 C.3     1  UNL1        0.0126
     23 C         141.9794  144.0402  163.5047 C.3     1  UNL1        0.0965
     24 C         141.1148  143.0083  164.1662 C.3     1  UNL1        0.1012
     25 C         141.4452  144.8405  162.3539 C.2     1  UNL1        0.2269
     26 O         140.5334  146.0040  162.6087 O.2     1  UNL1       -0.2748
     27 N         141.8228  144.4772  160.9485 N.am    1  UNL1       -0.2766
     28 C         142.7346  143.3137  160.6937 C.3     1  UNL1        0.1107
     29 C         143.1122  142.9505  159.2882 C.3     1  UNL1        0.0939
     30 N         142.5780  143.7507  158.1374 N.3     1  UNL1       -0.2686
     31 C         142.9556  143.3875  156.7319 C.3     1  UNL1        0.0897
     32 C         141.6662  144.9142  158.3922 C.3     1  UNL1        0.0939
     33 C         141.2886  145.2775  159.7977 C.3     1  UNL1        0.1107
@<TRIPOS>BOND
     1    17    18    1
     2    18    11    1
     3    11    12   ar
     4    12    13   ar
     5    13    14   ar
     6    14     1    1
     7     1     2   ar
     8     2     3   ar
     9     3     4   ar
    10     4     5   ar
    11     5     6   ar
    12     6     7   ar
    13     7     8   ar
    14     8    19    1
    15    19    20    1
    16    20    21    1
    17    21    22    1
    18    22    23    1
    19    23    25    1
    20    25    26    2
    21    25    27   am
    22    27    28    1
    23    28    29    1
    24    29    30    1
    25    30    31    1
    26    30    32    1
    27    32    33    1
    28    23    24    1
    29     8     9   ar
    30     9    10   ar
    31    14    15   ar
    32    15    16   ar
    33    16    11   ar
    34    10     1   ar
    35     9     4   ar
    36    24    19    1
    37    33    27    1
@<TRIPOS>MOLECULE
*****
 33 37 0 0 0
SMALL
GASTEIGER

@<TRIPOS>ATOM
      1 C         141.0384  141.3531  158.9244 C.ar    1  UNL1        0.0017
      2 C         139.9866  142.1798  158.2460 C.ar    1  UNL1        0.0016
      3 C         139.5536  143.4837  158.8480 C.ar    1  UNL1        0.0192
      4 C         140.1725  143.9609  160.1283 C.ar    1  UNL1        0.0857
      5 N         139.7395  145.2648  160.7303 N.ar    1  UNL1       -0.2239
      6 C         140.3583  145.7420  162.0107 C.ar    1  UNL1        0.2000
      7 N         141.4102  144.9153  162.6890 N.ar    1  UNL1       -0.2090
      8 C         141.8432  143.6114  162.0871 C.ar    1  UNL1        0.1348
      9 C         141.2243  143.1342  160.8067 C.ar    1  UNL1        0.0493
     10 C         141.6572  141.8303  160.2047 C.ar    1  UNL1        0.0043
     11 C         142.3374  137.4414  157.1185 C.ar    1  UNL1        0.2250
     12 C         140.8774  137.7425  157.2849 C.ar    1  UNL1        0.0577
     13 C         140.4444  139.0464  157.8869 C.ar    1  UNL1        0.0063
     14 C         141.4714  140.0492  158.3224 C.ar    1  UNL1        0.0194
     15 C         142.9314  139.7481  158.1560 C.ar    1  UNL1        0.1020
     16 N         143.3644  138.4442  157.5541 N.ar    1  UNL1       -0.2101
     17 C         144.0134  136.0741  155.6794 C.3     1  UNL1        0.2542
     18 O         142.7705  136.1375  156.5166 O.3     1  UNL1       -0.4561
     19 N         142.8950  142.7847  162.7654 N.pl3   1  UNL1       -0.2927
     20 C         144.3386  142.9580  162.3966 C.3     1  UNL1        0.0922
     21 C         145.3904  142.1312  163.0750 C.3     1  UNL1        0.0220
     22 C         144.9987  141.1313  164.1222 C.3     1  UNL1        0.0126
     23 C         143.5551  140.9581  164.4910 C.3     1  UNL1        0.0965
     24 C         142.5032  141.7848  163.8127 C.3     1  UNL1        0.1012
     25 C         143.1633  139.9581  165.5383 C.2     1  UNL1        0.2269
     26 O         143.0971  138.4994  165.1949 O.2     1  UNL1       -0.2748
     27 N         142.8378  140.4168  166.9288 N.am    1  UNL1       -0.2766
     28 C         142.9040  141.8755  167.2722 C.3     1  UNL1        0.1107
     29 C         142.5785  142.3342  168.6627 C.3     1  UNL1        0.0939
     30 N         142.1868  141.3342  169.7099 N.3     1  UNL1       -0.2686
     31 C         141.8613  141.7929  171.1005 C.3     1  UNL1        0.0897
     32 C         142.1206  139.8755  169.3666 C.3     1  UNL1        0.0939
     33 C         142.4461  139.4169  167.9760 C.3     1  UNL1        0.1107
@<TRIPOS>BOND
     1    17    18    1
     2    18    11    1
     3    11    12   ar
     4    12    13   ar
     5    13    14   ar
     6    14     1    1
     7     1     2   ar
     8     2     3   ar
     9     3     4   ar
    10     4     5   ar
    11     5     6   ar
    12     6     7   ar
    13     7     8   ar
    14     8    19    1
    15    19    20    1
    16    20    21    1
    17    21    22    1
    18    22    23    1
    19    23    25    1
    20    25    26    2
    21    25    27   am
    22    27    28    1
    23    28    29    1
    24    29    30    1
    25    30    31    1
    26    30    32    1
    27    32    33    1
    28    23    24    1
    29     8     9   ar
    30     9    10   ar
    31    14    15   ar
    32    15    16   ar
    33    16    11   ar
    34    10     1   ar
    35     9     4   ar
    36    24    19    1
    37    33    27    1
@<TRIPOS>MOLECULE
*****
 33 37 0 0 0
SMALL
GASTEIGER

@<TRIPOS>ATOM
      1 C         139.6510  139.8867  166.0814 C.ar    1  UNL1        0.0017
      2 C         139.4225  138.4093  166.2031 C.ar    1  UNL1        0.0016
      3 C         138.9142  137.6296  165.0269 C.ar    1  UNL1        0.0192
      4 C         138.6343  138.3274  163.7289 C.ar    1  UNL1        0.0857
      5 N         138.1259  137.5476  162.5526 N.ar    1  UNL1       -0.2239
      6 C         137.8460  138.2454  161.2546 C.ar    1  UNL1        0.2000
      7 N         138.0744  139.7229  161.1329 N.ar    1  UNL1       -0.2090
      8 C         138.5828  140.5026  162.3092 C.ar    1  UNL1        0.1348
      9 C         138.8627  139.8048  163.6072 C.ar    1  UNL1        0.0493
     10 C         139.3711  140.5845  164.7834 C.ar    1  UNL1        0.0043
     11 C         141.1762  142.2260  169.6102 C.ar    1  UNL1        0.2250
     12 C         140.7991  142.9378  168.3449 C.ar    1  UNL1        0.0577
     13 C         140.2907  142.1581  167.1686 C.ar    1  UNL1        0.0063
     14 C         140.1594  140.6665  167.2577 C.ar    1  UNL1        0.0194
     15 C         140.5365  139.9547  168.5230 C.ar    1  UNL1        0.1020
     16 N         141.0449  140.7343  169.6992 N.ar    1  UNL1       -0.2101
     17 C         143.1254  143.4182  170.8466 C.3     1  UNL1        0.2542
     18 O         141.6845  143.0057  170.7865 O.3     1  UNL1       -0.4561
     19 N         138.8112  141.9801  162.1874 N.pl3   1  UNL1       -0.2927
     20 C         137.8977  142.9406  162.8894 C.3     1  UNL1        0.0922
     21 C         138.1262  144.4182  162.7676 C.3     1  UNL1        0.0220
     22 C         139.2682  144.9351  161.9439 C.3     1  UNL1        0.0126
     23 C         140.1818  143.9745  161.2420 C.3     1  UNL1        0.0965
     24 C         139.9533  142.4971  161.3637 C.3     1  UNL1        0.1012
     25 C         141.3238  144.4915  160.4182 C.2     1  UNL1        0.2269
     26 O         142.6444  144.7837  161.0668 O.2     1  UNL1       -0.2748
     27 N         141.1453  144.7164  158.9460 N.am    1  UNL1       -0.2766
     28 C         139.8246  144.4242  158.2974 C.3     1  UNL1        0.1107
     29 C         139.6461  144.6491  156.8252 C.3     1  UNL1        0.0939
     30 N         140.7881  145.1661  156.0014 N.3     1  UNL1       -0.2686
     31 C         140.6096  145.3909  154.5292 C.3     1  UNL1        0.0897
     32 C         142.1087  145.4582  156.6500 C.3     1  UNL1        0.0939
     33 C         142.2873  145.2333  158.1223 C.3     1  UNL1        0.1107
@<TRIPOS>BOND
     1    17    18    1
     2    18    11    1
     3    11    12   ar
     4    12    13   ar
     5    13    14   ar
     6    14     1    1
     7     1     2   ar
     8     2     3   ar
     9     3     4   ar
    10     4     5   ar
    11     5     6   ar
    12     6     7   ar
    13     7     8   ar
    14     8    19    1
    15    19    20    1
    16    20    21    1
    17    21    22    1
    18    22    23    1
    19    23    25    1
    20    25    26    2
    21    25    27   am
    22    27    28    1
    23    28    29    1
    24    29    30    1
    25    30    31    1
    26    30    32    1
    27    32    33    1
    28    23    24    1
    29     8     9   ar
    30     9    10   ar
    31    14    15   ar
    32    15    16   ar
    33    16    11   ar
    34    10     1   ar
    35     9     4   ar
    36    24    19    1
    37    33    27    1
