@<TRIPOS>MOLECULE
*****
 42 46 0 0 0
SMALL
GASTEIGER

@<TRIPOS>ATOM
      1 C         141.6620  140.8802  166.7961 C.ar    1  UNL1        0.0203
      2 C         142.7507  139.8486  166.8174 C.ar    1  UNL1        0.0310
      3 C         143.4636  139.4844  165.5489 C.ar    1  UNL1        0.1414
      4 F         144.5523  138.4528  165.5701 F       1  UNL1       -0.2041
      5 C         143.0880  140.1519  164.2592 C.ar    1  UNL1        0.0440
      6 C         141.9993  141.1836  164.2379 C.ar    1  UNL1        0.0488
      7 C         141.2862  141.5477  165.5065 C.ar    1  UNL1       -0.0067
      8 C         140.1975  142.5794  165.4853 C.3     1  UNL1        0.0324
      9 C         139.8078  140.4017  168.5521 C.ar    1  UNL1        0.1870
     10 C         139.0949  140.7658  169.8205 C.ar    1  UNL1        0.1629
     11 N         137.9537  139.9231  170.3080 N.pl3   1  UNL1       -0.3401
     12 N         139.5231  141.9727  170.6016 N.ar    1  UNL1       -0.2063
     13 C         140.6642  142.8155  170.1142 C.ar    1  UNL1        0.2002
     14 N         141.3771  142.4513  168.8457 N.ar    1  UNL1       -0.2208
     15 C         140.9490  141.2444  168.0647 C.ar    1  UNL1        0.1194
     16 H         137.6727  139.1310  169.7954 H       1  UNL1        0.1438
     17 H         137.4858  140.1621  171.1406 H       1  UNL1        0.1438
     18 O         139.3797  139.1948  167.7710 O.3     1  UNL1       -0.4693
     19 C         138.6101  139.3618  166.4944 C.3     1  UNL1        0.2252
     20 C         138.0063  140.5264  163.5063 C.2     1  UNL1        0.2492
     21 O         137.3105  141.2743  164.6048 O.2     1  UNL1       -0.2699
     22 N         138.8857  139.3567  163.8356 N.am    1  UNL1       -0.2740
     23 C         139.6419  138.5169  162.8492 C.3     1  UNL1        0.0938
     24 C         140.3868  137.4626  163.6131 C.3     1  UNL1        0.0233
     25 C         140.0910  137.6507  165.0716 C.3     1  UNL1        0.0254
     26 C         139.1632  138.8214  165.2091 C.3     1  UNL1        0.1192
     27 C         138.0877  142.3689  161.6764 C.2     1  UNL1        0.0048
     28 C         137.8228  140.9484  162.0787 C.2     1  UNL1        0.0579
     29 N         141.6235  141.8511  162.9483 N.am    1  UNL1       -0.2805
     30 C         142.2028  143.1902  162.6004 C.2     1  UNL1        0.2517
     31 O         143.1578  143.8618  163.5421 O.2     1  UNL1       -0.2697
     32 H         140.9967  141.4102  162.3302 H       1  UNL1        0.1552
     33 C         141.8271  143.8577  161.3106 C.ar    1  UNL1        0.0810
     34 C         142.4763  143.4300  160.0278 C.ar    1  UNL1        0.0065
     35 C         142.1005  144.0976  158.7382 C.ar    1  UNL1       -0.0040
     36 C         141.0757  145.1928  158.7314 C.ar    1  UNL1       -0.0203
     37 C         140.4266  145.6206  160.0142 C.ar    1  UNL1        0.0255
     38 C         140.8023  144.9530  161.3038 C.ar    1  UNL1        0.1441
     39 F         140.1531  145.3808  162.5867 F       1  UNL1       -0.2040
     40 C         140.7000  145.8604  157.4417 C.3     1  UNL1        0.0224
     41 C         141.0296  146.2289  156.0256 C.3     1  UNL1        0.0047
     42 C         139.7197  146.6480  156.6240 C.3     1  UNL1        0.0047
@<TRIPOS>BOND
     1    27    28    2
     2    28    20    1
     3    20    21    2
     4    20    22   am
     5    22    23    1
     6    23    24    1
     7    24    25    1
     8    25    26    1
     9    26    19    1
    10    19    18    1
    11    18     9    1
    12     9    10   ar
    13    10    11    1
    14    10    12   ar
    15    12    13   ar
    16    13    14   ar
    17    14    15   ar
    18    15     1    1
    19     1     2   ar
    20     2     3   ar
    21     3     4    1
    22     3     5   ar
    23     5     6   ar
    24     6    29    1
    25    29    30   am
    26    30    31    2
    27    30    33    1
    28    33    34   ar
    29    34    35   ar
    30    35    36   ar
    31    36    40    1
    32    40    41    1
    33    41    42    1
    34    36    37   ar
    35    37    38   ar
    36    38    39    1
    37     6     7   ar
    38     7     8    1
    39    26    22    1
    40    15     9   ar
    41     7     1   ar
    42    38    33   ar
    43    42    40    1
    44    11    16    1
    45    11    17    1
    46    29    32    1
@<TRIPOS>MOLECULE
*****
 42 46 0 0 0
SMALL
GASTEIGER

@<TRIPOS>ATOM
      1 C         142.8511  141.1836  166.6128 C.ar    1  UNL1        0.0203
      2 C         143.4045  142.5765  166.6738 C.ar    1  UNL1        0.0310
      3 C         144.0362  143.1865  165.4578 C.ar    1  UNL1        0.1414
      4 F         144.5895  144.5794  165.5189 F       1  UNL1       -0.2041
      5 C         144.1146  142.4037  164.1807 C.ar    1  UNL1        0.0440
      6 C         143.5612  141.0108  164.1196 C.ar    1  UNL1        0.0488
      7 C         142.9295  140.4008  165.3357 C.ar    1  UNL1       -0.0067
      8 C         142.3761  139.0079  165.2746 C.3     1  UNL1        0.0324
      9 C         140.7284  140.5972  167.9913 C.ar    1  UNL1        0.1870
     10 C         140.0967  139.9872  169.2074 C.ar    1  UNL1        0.1629
     11 N         138.6057  140.0108  169.3699 N.pl3   1  UNL1       -0.3401
     12 N         140.9560  139.3536  170.2610 N.ar    1  UNL1       -0.2063
     13 C         142.4470  139.3299  170.0986 C.ar    1  UNL1        0.2002
     14 N         143.0787  139.9399  168.8825 N.ar    1  UNL1       -0.2208
     15 C         142.2194  140.5736  167.8289 C.ar    1  UNL1        0.1194
     16 H         138.0417  140.4267  168.6783 H       1  UNL1        0.1438
     17 H         138.1911  139.6105  170.1680 H       1  UNL1        0.1438
     18 O         139.8691  141.2309  166.9377 O.3     1  UNL1       -0.4693
     19 C         139.0980  140.3703  165.9813 C.3     1  UNL1        0.2252
     20 C         138.4899  138.7892  163.1920 C.2     1  UNL1        0.2492
     21 O         139.0793  137.9251  164.2673 O.2     1  UNL1       -0.2699
     22 N         138.2330  140.2434  163.4553 N.am    1  UNL1       -0.2740
     23 C         137.6514  141.2262  162.4826 C.3     1  UNL1        0.0938
     24 C         137.5715  142.5603  163.1636 C.3     1  UNL1        0.0233
     25 C         138.1037  142.4021  164.5571 C.3     1  UNL1        0.0254
     26 C         138.5125  140.9701  164.7374 C.3     1  UNL1        0.1192
     27 C         139.1019  138.3737  160.7015 C.2     1  UNL1        0.0048
     28 C         138.1575  138.1991  161.8537 C.2     1  UNL1        0.0579
     29 N         143.6396  140.2280  162.8425 N.am    1  UNL1       -0.2805
     30 C         142.5633  140.3713  161.8077 C.2     1  UNL1        0.2517
     31 O         141.4085  141.2975  162.0500 O.2     1  UNL1       -0.2697
     32 H         144.3975  139.6201  162.6835 H       1  UNL1        0.1552
     33 C         142.6416  139.5885  160.5306 C.ar    1  UNL1        0.0810
     34 C         142.6434  140.3031  159.2118 C.ar    1  UNL1        0.0065
     35 C         142.7217  139.5202  157.9347 C.ar    1  UNL1       -0.0040
     36 C         142.7983  138.0228  157.9764 C.ar    1  UNL1       -0.0203
     37 C         142.7964  137.3081  159.2952 C.ar    1  UNL1        0.0255
     38 C         142.7181  138.0910  160.5723 C.ar    1  UNL1        0.1441
     39 F         142.7163  137.3764  161.8912 F       1  UNL1       -0.2040
     40 C         142.8766  137.2399  156.6993 C.3     1  UNL1        0.0224
     41 C         143.6041  136.2772  155.8083 C.3     1  UNL1        0.0047
     42 C         142.2848  136.8467  155.3782 C.3     1  UNL1        0.0047
@<TRIPOS>BOND
     1    27    28    2
     2    28    20    1
     3    20    21    2
     4    20    22   am
     5    22    23    1
     6    23    24    1
     7    24    25    1
     8    25    26    1
     9    26    19    1
    10    19    18    1
    11    18     9    1
    12     9    10   ar
    13    10    11    1
    14    10    12   ar
    15    12    13   ar
    16    13    14   ar
    17    14    15   ar
    18    15     1    1
    19     1     2   ar
    20     2     3   ar
    21     3     4    1
    22     3     5   ar
    23     5     6   ar
    24     6    29    1
    25    29    30   am
    26    30    31    2
    27    30    33    1
    28    33    34   ar
    29    34    35   ar
    30    35    36   ar
    31    36    40    1
    32    40    41    1
    33    41    42    1
    34    36    37   ar
    35    37    38   ar
    36    38    39    1
    37     6     7   ar
    38     7     8    1
    39    26    22    1
    40    15     9   ar
    41     7     1   ar
    42    38    33   ar
    43    42    40    1
    44    11    16    1
    45    11    17    1
    46    29    32    1
@<TRIPOS>MOLECULE
*****
 42 46 0 0 0
SMALL
GASTEIGER

@<TRIPOS>ATOM
      1 C         140.0709  141.4260  166.8707 C.ar    1  UNL1        0.0203
      2 C         139.1792  140.2344  167.0578 C.ar    1  UNL1        0.0310
      3 C         138.5568  139.5689  165.8663 C.ar    1  UNL1        0.1414
      4 F         137.6651  138.3774  166.0534 F       1  UNL1       -0.2041
      5 C         138.8262  140.0950  164.4876 C.ar    1  UNL1        0.0440
      6 C         139.7180  141.2865  164.3005 C.ar    1  UNL1        0.0488
      7 C         140.3403  141.9520  165.4921 C.ar    1  UNL1       -0.0067
      8 C         141.2321  143.1436  165.3050 C.3     1  UNL1        0.0324
      9 C         141.9711  141.5567  168.6378 C.ar    1  UNL1        0.1870
     10 C         142.5933  142.2221  169.8293 C.ar    1  UNL1        0.1629
     11 N         143.8712  141.6873  170.4048 N.pl3   1  UNL1       -0.3401
     12 N         141.9378  143.4224  170.4454 N.ar    1  UNL1       -0.2063
     13 C         140.6600  143.9573  169.8700 C.ar    1  UNL1        0.2002
     14 N         140.0378  143.2918  168.6784 N.ar    1  UNL1       -0.2208
     15 C         140.6933  142.0915  168.0623 C.ar    1  UNL1        0.1194
     16 H         144.3014  140.8995  170.0005 H       1  UNL1        0.1438
     17 H         144.2796  142.1241  171.1869 H       1  UNL1        0.1438
     18 O         142.6266  140.3563  168.0217 O.3     1  UNL1       -0.4693
     19 C         143.4014  140.4975  166.7451 C.3     1  UNL1        0.2252
     20 C         144.0017  141.3764  163.6602 C.2     1  UNL1        0.2492
     21 O         144.5671  142.3163  164.6835 O.2     1  UNL1       -0.2699
     22 N         143.2394  140.1611  164.0983 N.am    1  UNL1       -0.2740
     23 C         142.6193  139.1364  163.1952 C.3     1  UNL1        0.0938
     24 C         141.9601  138.0991  164.0551 C.3     1  UNL1        0.0233
     25 C         142.1728  138.4826  165.4896 C.3     1  UNL1        0.0254
     26 C         142.9635  139.7571  165.5162 C.3     1  UNL1        0.1192
     27 C         143.2091  142.4992  161.4554 C.2     1  UNL1        0.0048
     28 C         144.1987  141.6519  162.1990 C.2     1  UNL1        0.0579
     29 N         139.9874  141.8126  162.9219 N.am    1  UNL1       -0.2805
     30 C         139.2351  143.0071  162.4147 C.2     1  UNL1        0.2517
     31 O         138.2135  143.6755  163.2862 O.2     1  UNL1       -0.2697
     32 H         140.6579  141.3739  162.3499 H       1  UNL1        0.1552
     33 C         139.5045  143.5332  161.0360 C.ar    1  UNL1        0.0810
     34 C         139.0257  142.7715  159.8358 C.ar    1  UNL1        0.0065
     35 C         139.2951  143.2977  158.4572 C.ar    1  UNL1       -0.0040
     36 C         140.0433  144.5855  158.2788 C.ar    1  UNL1       -0.0203
     37 C         140.5221  145.3471  159.4791 C.ar    1  UNL1        0.0255
     38 C         140.2527  144.8210  160.8576 C.ar    1  UNL1        0.1441
     39 F         140.7315  145.5827  162.0580 F       1  UNL1       -0.2040
     40 C         140.3127  145.1116  156.9001 C.3     1  UNL1        0.0224
     41 C         139.9097  145.9634  155.7331 C.3     1  UNL1        0.0047
     42 C         141.1822  145.1710  155.6793 C.3     1  UNL1        0.0047
@<TRIPOS>BOND
     1    27    28    2
     2    28    20    1
     3    20    21    2
     4    20    22   am
     5    22    23    1
     6    23    24    1
     7    24    25    1
     8    25    26    1
     9    26    19    1
    10    19    18    1
    11    18     9    1
    12     9    10   ar
    13    10    11    1
    14    10    12   ar
    15    12    13   ar
    16    13    14   ar
    17    14    15   ar
    18    15     1    1
    19     1     2   ar
    20     2     3   ar
    21     3     4    1
    22     3     5   ar
    23     5     6   ar
    24     6    29    1
    25    29    30   am
    26    30    31    2
    27    30    33    1
    28    33    34   ar
    29    34    35   ar
    30    35    36   ar
    31    36    40    1
    32    40    41    1
    33    41    42    1
    34    36    37   ar
    35    37    38   ar
    36    38    39    1
    37     6     7   ar
    38     7     8    1
    39    26    22    1
    40    15     9   ar
    41     7     1   ar
    42    38    33   ar
    43    42    40    1
    44    11    16    1
    45    11    17    1
    46    29    32    1
@<TRIPOS>MOLECULE
*****
 42 46 0 0 0
SMALL
GASTEIGER

@<TRIPOS>ATOM
      1 C         141.1024  142.6340  166.4989 C.ar    1  UNL1        0.0203
      2 C         139.8870  143.5054  166.6148 C.ar    1  UNL1        0.0310
      3 C         139.2462  144.0669  165.3803 C.ar    1  UNL1        0.1414
      4 F         138.0308  144.9383  165.4962 F       1  UNL1       -0.2041
      5 C         139.8209  143.7570  164.0298 C.ar    1  UNL1        0.0440
      6 C         141.0363  142.8856  163.9139 C.ar    1  UNL1        0.0488
      7 C         141.6770  142.3241  165.1485 C.ar    1  UNL1       -0.0067
      8 C         142.8924  141.4526  165.0326 C.3     1  UNL1        0.0324
      9 C         141.1244  140.8978  168.4317 C.ar    1  UNL1        0.1870
     10 C         141.7651  140.3364  169.6662 C.ar    1  UNL1        0.1629
     11 N         141.1464  139.1617  170.3644 N.pl3   1  UNL1       -0.3401
     12 N         143.0246  140.9496  170.2027 N.ar    1  UNL1       -0.2063
     13 C         143.6433  142.1242  169.5046 C.ar    1  UNL1        0.2002
     14 N         143.0026  142.6856  168.2700 N.ar    1  UNL1       -0.2208
     15 C         141.7431  142.0725  167.7336 C.ar    1  UNL1        0.1194
     16 H         140.3198  138.7592  170.0123 H       1  UNL1        0.1438
     17 H         141.5670  138.7932  171.1747 H       1  UNL1        0.1438
     18 O         139.8649  140.2847  167.8952 O.3     1  UNL1       -0.4693
     19 C         139.9364  139.2576  166.8044 C.3     1  UNL1        0.2252
     20 C         141.2777  138.2936  163.9899 C.2     1  UNL1        0.2492
     21 O         142.0031  137.8076  165.2096 O.2     1  UNL1       -0.2699
     22 N         140.0508  139.1441  164.1362 N.am    1  UNL1       -0.2740
     23 C         139.2251  139.7009  163.0145 C.3     1  UNL1        0.0938
     24 C         138.0982  140.4880  163.6149 C.3     1  UNL1        0.0233
     25 C         138.2274  140.4178  165.1077 C.3     1  UNL1        0.0254
     26 C         139.4343  139.5872  165.4299 C.3     1  UNL1        0.1192
     27 C         143.1273  138.4039  162.1687 C.2     1  UNL1        0.0048
     28 C         141.7792  137.9292  162.6241 C.2     1  UNL1        0.0579
     29 N         141.6110  142.5756  162.5635 N.am    1  UNL1       -0.2805
     30 C         142.5645  143.5356  161.9159 C.2     1  UNL1        0.2517
     31 O         142.9433  144.8054  162.6188 O.2     1  UNL1       -0.2697
     32 H         141.3623  141.7422  162.1022 H       1  UNL1        0.1552
     33 C         143.1392  143.2257  160.5655 C.ar    1  UNL1        0.0810
     34 C         142.3942  143.6203  159.3248 C.ar    1  UNL1        0.0065
     35 C         142.9690  143.3104  157.9744 C.ar    1  UNL1       -0.0040
     36 C         144.2887  142.6059  157.8647 C.ar    1  UNL1       -0.0203
     37 C         145.0337  142.2113  159.1053 C.ar    1  UNL1        0.0255
     38 C         144.4589  142.5212  160.4557 C.ar    1  UNL1        0.1441
     39 F         145.2039  142.1266  161.6965 F       1  UNL1       -0.2040
     40 C         144.8634  142.2960  156.5142 C.3     1  UNL1        0.0224
     41 C         144.8216  141.5190  155.2318 C.3     1  UNL1        0.0047
     42 C         145.9006  142.5362  155.4575 C.3     1  UNL1        0.0047
@<TRIPOS>BOND
     1    27    28    2
     2    28    20    1
     3    20    21    2
     4    20    22   am
     5    22    23    1
     6    23    24    1
     7    24    25    1
     8    25    26    1
     9    26    19    1
    10    19    18    1
    11    18     9    1
    12     9    10   ar
    13    10    11    1
    14    10    12   ar
    15    12    13   ar
    16    13    14   ar
    17    14    15   ar
    18    15     1    1
    19     1     2   ar
    20     2     3   ar
    21     3     4    1
    22     3     5   ar
    23     5     6   ar
    24     6    29    1
    25    29    30   am
    26    30    31    2
    27    30    33    1
    28    33    34   ar
    29    34    35   ar
    30    35    36   ar
    31    36    40    1
    32    40    41    1
    33    41    42    1
    34    36    37   ar
    35    37    38   ar
    36    38    39    1
    37     6     7   ar
    38     7     8    1
    39    26    22    1
    40    15     9   ar
    41     7     1   ar
    42    38    33   ar
    43    42    40    1
    44    11    16    1
    45    11    17    1
    46    29    32    1
@<TRIPOS>MOLECULE
*****
 42 46 0 0 0
SMALL
GASTEIGER

@<TRIPOS>ATOM
      1 C         140.3536  139.7993  162.4596 C.ar    1  UNL1        0.0203
      2 C         139.2013  138.8395  162.4265 C.ar    1  UNL1        0.0310
      3 C         138.0170  139.1193  161.5496 C.ar    1  UNL1        0.1414
      4 F         136.8647  138.1595  161.5165 F       1  UNL1       -0.2041
      5 C         137.9849  140.3590  160.7056 C.ar    1  UNL1        0.0440
      6 C         139.1372  141.3188  160.7386 C.ar    1  UNL1        0.0488
      7 C         140.3215  141.0389  161.6156 C.ar    1  UNL1       -0.0067
      8 C         141.4738  141.9987  161.6487 C.3     1  UNL1        0.0324
      9 C         141.3970  139.5790  164.8287 C.ar    1  UNL1        0.1870
     10 C         142.5813  139.2991  165.7056 C.ar    1  UNL1        0.1629
     11 N         142.4404  139.3587  167.1979 N.pl3   1  UNL1       -0.3401
     12 N         143.9065  138.9595  165.0904 N.ar    1  UNL1       -0.2063
     13 C         144.0474  138.8999  163.5983 C.ar    1  UNL1        0.2002
     14 N         142.8631  139.1798  162.7213 N.ar    1  UNL1       -0.2208
     15 C         141.5379  139.5193  163.3366 C.ar    1  UNL1        0.1194
     16 H         141.5706  139.5816  167.6017 H       1  UNL1        0.1438
     17 H         143.2177  139.1750  167.7734 H       1  UNL1        0.1438
     18 O         140.0718  139.9185  165.4439 O.3     1  UNL1       -0.4693
     19 C         139.7875  141.3238  165.8846 C.3     1  UNL1        0.2252
     20 C         141.3807  143.8537  164.5765 C.2     1  UNL1        0.2492
     21 O         142.2087  143.0334  165.5208 O.2     1  UNL1       -0.2699
     22 N         139.9532  143.4777  164.3103 N.am    1  UNL1       -0.2740
     23 C         139.0074  144.1986  163.3961 C.3     1  UNL1        0.0938
     24 C         137.6905  143.4813  163.4323 C.3     1  UNL1        0.0233
     25 C         137.8224  142.3171  164.3689 C.3     1  UNL1        0.0254
     26 C         139.2209  142.3149  164.9116 C.3     1  UNL1        0.1192
     27 C         143.4317  145.0486  163.5204 C.2     1  UNL1        0.0048
     28 C         141.9802  145.0499  163.8986 C.2     1  UNL1        0.0579
     29 N         139.1052  142.5584  159.8947 N.am    1  UNL1       -0.2805
     30 C         139.7255  142.5522  158.5291 C.2     1  UNL1        0.2517
     31 O         140.3779  141.3063  158.0073 O.2     1  UNL1       -0.2697
     32 H         138.6770  143.3761  160.2371 H       1  UNL1        0.1552
     33 C         139.6935  143.7919  157.6851 C.ar    1  UNL1        0.0810
     34 C         138.8457  143.8356  156.4485 C.ar    1  UNL1        0.0065
     35 C         138.8137  145.0752  155.6046 C.ar    1  UNL1       -0.0040
     36 C         139.6296  146.2711  155.9972 C.ar    1  UNL1       -0.0203
     37 C         140.4775  146.2274  157.2338 C.ar    1  UNL1        0.0255
     38 C         140.5094  144.9877  158.0777 C.ar    1  UNL1        0.1441
     39 F         141.3573  144.9439  159.3144 F       1  UNL1       -0.2040
     40 C         139.5976  147.5108  155.1532 C.3     1  UNL1        0.0224
     41 C         139.1378  148.9217  154.9342 C.3     1  UNL1        0.0047
     42 C         140.0019  148.2470  153.9104 C.3     1  UNL1        0.0047
@<TRIPOS>BOND
     1    27    28    2
     2    28    20    1
     3    20    21    2
     4    20    22   am
     5    22    23    1
     6    23    24    1
     7    24    25    1
     8    25    26    1
     9    26    19    1
    10    19    18    1
    11    18     9    1
    12     9    10   ar
    13    10    11    1
    14    10    12   ar
    15    12    13   ar
    16    13    14   ar
    17    14    15   ar
    18    15     1    1
    19     1     2   ar
    20     2     3   ar
    21     3     4    1
    22     3     5   ar
    23     5     6   ar
    24     6    29    1
    25    29    30   am
    26    30    31    2
    27    30    33    1
    28    33    34   ar
    29    34    35   ar
    30    35    36   ar
    31    36    40    1
    32    40    41    1
    33    41    42    1
    34    36    37   ar
    35    37    38   ar
    36    38    39    1
    37     6     7   ar
    38     7     8    1
    39    26    22    1
    40    15     9   ar
    41     7     1   ar
    42    38    33   ar
    43    42    40    1
    44    11    16    1
    45    11    17    1
    46    29    32    1
@<TRIPOS>MOLECULE
*****
 42 46 0 0 0
SMALL
GASTEIGER

@<TRIPOS>ATOM
      1 C         142.3157  140.5342  164.3523 C.ar    1  UNL1        0.0203
      2 C         143.0525  139.2865  163.9645 C.ar    1  UNL1        0.0310
      3 C         143.2505  138.9522  162.5157 C.ar    1  UNL1        0.1414
      4 F         143.9874  137.7045  162.1279 F       1  UNL1       -0.2041
      5 C         142.7117  139.8654  161.4547 C.ar    1  UNL1        0.0440
      6 C         141.9748  141.1131  161.8426 C.ar    1  UNL1        0.0488
      7 C         141.7768  141.4474  163.2915 C.ar    1  UNL1       -0.0067
      8 C         141.0399  142.6951  163.6793 C.3     1  UNL1        0.0324
      9 C         141.0266  140.1990  166.5831 C.ar    1  UNL1        0.1870
     10 C         140.8287  140.5334  168.0319 C.ar    1  UNL1        0.1629
     11 N         139.7376  139.8639  168.8138 N.pl3   1  UNL1       -0.3401
     12 N         141.7217  141.5372  168.6987 N.ar    1  UNL1       -0.2063
     13 C         142.8128  142.2067  167.9168 C.ar    1  UNL1        0.2002
     14 N         143.0107  141.8724  166.4681 N.ar    1  UNL1       -0.2208
     15 C         142.1176  140.8685  165.8012 C.ar    1  UNL1        0.1194
     16 H         139.1514  139.2050  168.3762 H       1  UNL1        0.1438
     17 H         139.6077  140.0834  169.7647 H       1  UNL1        0.1438
     18 O         140.1335  139.1952  165.9162 O.3     1  UNL1       -0.4693
     19 C         138.6793  139.5023  165.7144 C.3     1  UNL1        0.2252
     20 C         138.5078  138.5213  162.6067 C.2     1  UNL1        0.2492
     21 O         138.9787  137.4601  163.5565 O.2     1  UNL1       -0.2699
     22 N         138.1655  139.8887  163.1198 N.am    1  UNL1       -0.2740
     23 C         137.6843  141.0451  162.2945 C.3     1  UNL1        0.0938
     24 C         137.4658  142.2108  163.2129 C.3     1  UNL1        0.0233
     25 C         137.8119  141.7748  164.6059 C.3     1  UNL1        0.0254
     26 C         138.2444  140.3396  164.5483 C.3     1  UNL1        0.1192
     27 C         139.5127  138.5227  160.2108 C.2     1  UNL1        0.0048
     28 C         138.3792  138.2152  161.1440 C.2     1  UNL1        0.0579
     29 N         141.4360  142.0263  160.7817 N.am    1  UNL1       -0.2805
     30 C         142.2807  143.1508  160.2603 C.2     1  UNL1        0.2517
     31 O         143.6643  143.3620  160.7998 O.2     1  UNL1       -0.2697
     32 H         140.5279  141.8877  160.4276 H       1  UNL1        0.1552
     33 C         141.7419  144.0641  159.1993 C.ar    1  UNL1        0.0810
     34 C         142.3707  144.0852  157.8377 C.ar    1  UNL1        0.0065
     35 C         141.8319  144.9985  156.7768 C.ar    1  UNL1       -0.0040
     36 C         140.6642  145.8908  157.0776 C.ar    1  UNL1       -0.0203
     37 C         140.0354  145.8697  158.4393 C.ar    1  UNL1        0.0255
     38 C         140.5743  144.9564  159.5001 C.ar    1  UNL1        0.1441
     39 F         139.9455  144.9354  160.8619 F       1  UNL1       -0.2040
     40 C         140.1254  146.8041  156.0167 C.3     1  UNL1        0.0224
     41 C         140.2747  147.4797  154.6858 C.3     1  UNL1        0.0047
     42 C         139.0429  147.7104  155.5100 C.3     1  UNL1        0.0047
@<TRIPOS>BOND
     1    27    28    2
     2    28    20    1
     3    20    21    2
     4    20    22   am
     5    22    23    1
     6    23    24    1
     7    24    25    1
     8    25    26    1
     9    26    19    1
    10    19    18    1
    11    18     9    1
    12     9    10   ar
    13    10    11    1
    14    10    12   ar
    15    12    13   ar
    16    13    14   ar
    17    14    15   ar
    18    15     1    1
    19     1     2   ar
    20     2     3   ar
    21     3     4    1
    22     3     5   ar
    23     5     6   ar
    24     6    29    1
    25    29    30   am
    26    30    31    2
    27    30    33    1
    28    33    34   ar
    29    34    35   ar
    30    35    36   ar
    31    36    40    1
    32    40    41    1
    33    41    42    1
    34    36    37   ar
    35    37    38   ar
    36    38    39    1
    37     6     7   ar
    38     7     8    1
    39    26    22    1
    40    15     9   ar
    41     7     1   ar
    42    38    33   ar
    43    42    40    1
    44    11    16    1
    45    11    17    1
    46    29    32    1
@<TRIPOS>MOLECULE
*****
 42 46 0 0 0
SMALL
GASTEIGER

@<TRIPOS>ATOM
      1 C         142.0726  141.4566  161.2835 C.ar    1  UNL1        0.0203
      2 C         143.2381  141.3700  162.2237 C.ar    1  UNL1        0.0310
      3 C         144.0828  140.1310  162.2590 C.ar    1  UNL1        0.1414
      4 F         145.2483  140.0444  163.1993 F       1  UNL1       -0.2041
      5 C         143.7621  138.9786  161.3540 C.ar    1  UNL1        0.0440
      6 C         142.5966  139.0652  160.4137 C.ar    1  UNL1        0.0488
      7 C         141.7518  140.3042  160.3785 C.ar    1  UNL1       -0.0067
      8 C         140.5863  140.3909  159.4382 C.3     1  UNL1        0.0324
      9 C         139.8756  142.7002  161.8974 C.ar    1  UNL1        0.1870
     10 C         139.0309  143.9393  161.8621 C.ar    1  UNL1        0.1629
     11 N         137.6786  143.9438  162.5113 N.pl3   1  UNL1       -0.3401
     12 N         139.5385  145.1738  161.1777 N.ar    1  UNL1       -0.2063
     13 C         140.8907  145.1692  160.5286 C.ar    1  UNL1        0.2002
     14 N         141.7354  143.9302  160.5638 N.ar    1  UNL1       -0.2208
     15 C         141.2278  142.6957  161.2482 C.ar    1  UNL1        0.1194
     16 H         137.3455  143.1336  162.9605 H       1  UNL1        0.1438
     17 H         137.1242  144.7571  162.4881 H       1  UNL1        0.1438
     18 O         139.3680  141.4657  162.5818 O.3     1  UNL1       -0.4693
     19 C         139.5361  141.3069  164.0638 C.3     1  UNL1        0.2252
     20 C         142.2802  142.3392  165.4971 C.2     1  UNL1        0.2492
     21 O         141.3692  143.4458  165.0548 O.2     1  UNL1       -0.2699
     22 N         141.8911  140.9093  165.2642 N.am    1  UNL1       -0.2740
     23 C         142.6951  139.7030  165.6493 C.3     1  UNL1        0.0938
     24 C         141.9307  138.4829  165.2284 C.3     1  UNL1        0.0233
     25 C         140.6543  138.9352  164.5833 C.3     1  UNL1        0.0254
     26 C         140.6299  140.4349  164.6054 C.3     1  UNL1        0.1192
     27 C         144.5708  143.5652  165.4989 C.2     1  UNL1        0.0048
     28 C         143.5800  142.6624  166.1722 C.2     1  UNL1        0.0579
     29 N         142.2758  137.9128  159.5087 N.am    1  UNL1       -0.2805
     30 C         142.8025  137.8929  158.1044 C.2     1  UNL1        0.2517
     31 O         143.6499  139.0254  157.6051 O.2     1  UNL1       -0.2697
     32 H         141.7196  137.1695  159.8364 H       1  UNL1        0.1552
     33 C         142.4817  136.7405  157.1993 C.ar    1  UNL1        0.0810
     34 C         143.3287  135.5030  157.2318 C.ar    1  UNL1        0.0065
     35 C         143.0079  134.3506  156.3267 C.ar    1  UNL1       -0.0040
     36 C         141.8402  134.4358  155.3892 C.ar    1  UNL1       -0.0203
     37 C         140.9932  135.6733  155.3566 C.ar    1  UNL1        0.0255
     38 C         141.3140  136.8257  156.2617 C.ar    1  UNL1        0.1441
     39 F         140.4669  138.0633  156.2292 F       1  UNL1       -0.2040
     40 C         141.5194  133.2834  154.4841 C.3     1  UNL1        0.0224
     41 C         141.5187  132.6665  153.1168 C.3     1  UNL1        0.0047
     42 C         140.9646  131.9042  154.2837 C.3     1  UNL1        0.0047
@<TRIPOS>BOND
     1    27    28    2
     2    28    20    1
     3    20    21    2
     4    20    22   am
     5    22    23    1
     6    23    24    1
     7    24    25    1
     8    25    26    1
     9    26    19    1
    10    19    18    1
    11    18     9    1
    12     9    10   ar
    13    10    11    1
    14    10    12   ar
    15    12    13   ar
    16    13    14   ar
    17    14    15   ar
    18    15     1    1
    19     1     2   ar
    20     2     3   ar
    21     3     4    1
    22     3     5   ar
    23     5     6   ar
    24     6    29    1
    25    29    30   am
    26    30    31    2
    27    30    33    1
    28    33    34   ar
    29    34    35   ar
    30    35    36   ar
    31    36    40    1
    32    40    41    1
    33    41    42    1
    34    36    37   ar
    35    37    38   ar
    36    38    39    1
    37     6     7   ar
    38     7     8    1
    39    26    22    1
    40    15     9   ar
    41     7     1   ar
    42    38    33   ar
    43    42    40    1
    44    11    16    1
    45    11    17    1
    46    29    32    1
@<TRIPOS>MOLECULE
*****
 42 46 0 0 0
SMALL
GASTEIGER

@<TRIPOS>ATOM
      1 C         142.1920  140.0372  158.8623 C.ar    1  UNL1        0.0203
      2 C         142.5952  141.3050  158.1695 C.ar    1  UNL1        0.0310
      3 C         142.8421  142.5503  158.9683 C.ar    1  UNL1        0.1414
      4 F         143.2454  143.8181  158.2754 F       1  UNL1       -0.2041
      5 C         142.6858  142.5279  160.4600 C.ar    1  UNL1        0.0440
      6 C         142.2825  141.2601  161.1528 C.ar    1  UNL1        0.0488
      7 C         142.0356  140.0147  160.3539 C.ar    1  UNL1       -0.0067
      8 C         141.6324  138.7469  161.0468 C.3     1  UNL1        0.0324
      9 C         140.5915  138.5380  157.4691 C.ar    1  UNL1        0.1870
     10 C         140.3446  137.2927  156.6703 C.ar    1  UNL1        0.1629
     11 N         138.9910  137.0389  156.0759 N.pl3   1  UNL1       -0.3401
     12 N         141.4514  136.3011  156.4658 N.ar    1  UNL1       -0.2063
     13 C         142.8050  136.5549  157.0601 C.ar    1  UNL1        0.2002
     14 N         143.0519  137.8002  157.8589 N.ar    1  UNL1       -0.2208
     15 C         141.9451  138.7918  158.0634 C.ar    1  UNL1        0.1194
     16 H         138.2645  137.6897  156.2101 H       1  UNL1        0.1438
     17 H         138.8289  136.2215  155.5516 H       1  UNL1        0.1438
     18 O         139.4847  139.5296  157.6736 O.3     1  UNL1       -0.4693
     19 C         138.7265  139.5510  158.9676 C.3     1  UNL1        0.2252
     20 C         138.3325  139.6075  162.2066 C.2     1  UNL1        0.2492
     21 O         138.2427  138.2364  161.6048 O.2     1  UNL1       -0.2699
     22 N         138.5837  140.7971  161.3281 N.am    1  UNL1       -0.2740
     23 C         138.6980  142.2215  161.7842 C.3     1  UNL1        0.0938
     24 C         138.9497  143.0759  160.5773 C.3     1  UNL1        0.0233
     25 C         138.9910  142.1795  159.3752 C.3     1  UNL1        0.0254
     26 C         138.7648  140.7711  159.8393 C.3     1  UNL1        0.1192
     27 C         139.2935  139.4269  164.6136 C.2     1  UNL1        0.0048
     28 C         138.1711  139.7889  163.6868 C.2     1  UNL1        0.0579
     29 N         142.1262  141.2376  162.6444 N.am    1  UNL1       -0.2805
     30 C         143.2666  140.7928  163.5114 C.2     1  UNL1        0.2517
     31 O         144.5633  140.3705  162.8868 O.2     1  UNL1       -0.2697
     32 H         141.2751  141.5147  163.0544 H       1  UNL1        0.1552
     33 C         143.1102  140.7703  165.0031 C.ar    1  UNL1        0.0810
     34 C         142.9430  139.4634  165.7201 C.ar    1  UNL1        0.0065
     35 C         142.7867  139.4410  167.2117 C.ar    1  UNL1       -0.0040
     36 C         142.7976  140.7254  167.9864 C.ar    1  UNL1       -0.0203
     37 C         142.9649  142.0323  167.2694 C.ar    1  UNL1        0.0255
     38 C         143.1212  142.0547  165.7778 C.ar    1  UNL1        0.1441
     39 F         143.2884  143.3616  165.0608 F       1  UNL1       -0.2040
     40 C         142.6413  140.7029  169.4781 C.3     1  UNL1        0.0224
     41 C         142.1923  141.3642  170.7473 C.3     1  UNL1        0.0047
     42 C         142.8197  140.0025  170.7926 C.3     1  UNL1        0.0047
@<TRIPOS>BOND
     1    27    28    2
     2    28    20    1
     3    20    21    2
     4    20    22   am
     5    22    23    1
     6    23    24    1
     7    24    25    1
     8    25    26    1
     9    26    19    1
    10    19    18    1
    11    18     9    1
    12     9    10   ar
    13    10    11    1
    14    10    12   ar
    15    12    13   ar
    16    13    14   ar
    17    14    15   ar
    18    15     1    1
    19     1     2   ar
    20     2     3   ar
    21     3     4    1
    22     3     5   ar
    23     5     6   ar
    24     6    29    1
    25    29    30   am
    26    30    31    2
    27    30    33    1
    28    33    34   ar
    29    34    35   ar
    30    35    36   ar
    31    36    40    1
    32    40    41    1
    33    41    42    1
    34    36    37   ar
    35    37    38   ar
    36    38    39    1
    37     6     7   ar
    38     7     8    1
    39    26    22    1
    40    15     9   ar
    41     7     1   ar
    42    38    33   ar
    43    42    40    1
    44    11    16    1
    45    11    17    1
    46    29    32    1
@<TRIPOS>MOLECULE
*****
 42 46 0 0 0
SMALL
GASTEIGER

@<TRIPOS>ATOM
      1 C         143.2332  141.9850  164.8625 C.ar    1  UNL1        0.0203
      2 C         143.8616  143.2784  165.2894 C.ar    1  UNL1        0.0310
      3 C         143.8228  144.4682  164.3769 C.ar    1  UNL1        0.1414
      4 F         144.4513  145.7616  164.8038 F       1  UNL1       -0.2041
      5 C         143.1556  144.3647  163.0374 C.ar    1  UNL1        0.0440
      6 C         142.5272  143.0714  162.6105 C.ar    1  UNL1        0.0488
      7 C         142.5660  141.8815  163.5231 C.ar    1  UNL1       -0.0067
      8 C         141.9375  140.5881  163.0962 C.3     1  UNL1        0.0324
      9 C         142.6538  140.8758  167.1393 C.ar    1  UNL1        0.1870
     10 C         142.6926  139.6859  168.0518 C.ar    1  UNL1        0.1629
     11 N         142.0744  139.7666  169.4162 N.pl3   1  UNL1       -0.3401
     12 N         143.3496  138.4154  167.6000 N.ar    1  UNL1       -0.2063
     13 C         143.9677  138.3347  166.2358 C.ar    1  UNL1        0.2002
     14 N         143.9289  139.5246  165.3233 N.ar    1  UNL1       -0.2208
     15 C         143.2719  140.7951  165.7751 C.ar    1  UNL1        0.1194
     16 H         141.6432  140.6004  169.7127 H       1  UNL1        0.1438
     17 H         142.0999  138.9856  170.0151 H       1  UNL1        0.1438
     18 O         141.9968  142.1463  167.5911 O.3     1  UNL1       -0.4693
     19 C         140.5039  142.2798  167.5348 C.3     1  UNL1        0.2252
     20 C         138.8796  139.5918  166.6482 C.2     1  UNL1        0.2492
     21 O         139.5041  139.5064  168.0094 O.2     1  UNL1       -0.2699
     22 N         139.0344  140.8389  165.8291 N.am    1  UNL1       -0.2740
     23 C         138.4697  141.0692  164.4587 C.3     1  UNL1        0.0938
     24 C         138.8673  142.4472  164.0192 C.3     1  UNL1        0.0233
     25 C         139.6777  143.0685  165.1180 C.3     1  UNL1        0.0254
     26 C         139.7810  142.0744  166.2366 C.3     1  UNL1        0.1192
     27 C         138.7899  137.3838  165.2819 C.2     1  UNL1        0.0048
     28 C         138.1004  138.4304  166.1063 C.2     1  UNL1        0.0579
     29 N         141.8600  142.9679  161.2711 N.am    1  UNL1       -0.2805
     30 C         140.7220  143.8827  160.9274 C.2     1  UNL1        0.2517
     31 O         140.2513  144.9010  161.9231 O.2     1  UNL1       -0.2697
     32 H         142.1689  142.2995  160.6176 H       1  UNL1        0.1552
     33 C         140.0548  143.7792  159.5879 C.ar    1  UNL1        0.0810
     34 C         139.0609  142.6864  159.3275 C.ar    1  UNL1        0.0065
     35 C         138.3936  142.5829  157.9881 C.ar    1  UNL1       -0.0040
     36 C         138.7203  143.5723  156.9091 C.ar    1  UNL1       -0.0203
     37 C         139.7143  144.6651  157.1694 C.ar    1  UNL1        0.0255
     38 C         140.3815  144.7686  158.5088 C.ar    1  UNL1        0.1441
     39 F         141.3755  145.8614  158.7692 F       1  UNL1       -0.2040
     40 C         138.0531  143.4688  155.5696 C.3     1  UNL1        0.0224
     41 C         137.8685  142.7580  154.2617 C.3     1  UNL1        0.0047
     42 C         137.0819  144.0004  154.5575 C.3     1  UNL1        0.0047
@<TRIPOS>BOND
     1    27    28    2
     2    28    20    1
     3    20    21    2
     4    20    22   am
     5    22    23    1
     6    23    24    1
     7    24    25    1
     8    25    26    1
     9    26    19    1
    10    19    18    1
    11    18     9    1
    12     9    10   ar
    13    10    11    1
    14    10    12   ar
    15    12    13   ar
    16    13    14   ar
    17    14    15   ar
    18    15     1    1
    19     1     2   ar
    20     2     3   ar
    21     3     4    1
    22     3     5   ar
    23     5     6   ar
    24     6    29    1
    25    29    30   am
    26    30    31    2
    27    30    33    1
    28    33    34   ar
    29    34    35   ar
    30    35    36   ar
    31    36    40    1
    32    40    41    1
    33    41    42    1
    34    36    37   ar
    35    37    38   ar
    36    38    39    1
    37     6     7   ar
    38     7     8    1
    39    26    22    1
    40    15     9   ar
    41     7     1   ar
    42    38    33   ar
    43    42    40    1
    44    11    16    1
    45    11    17    1
    46    29    32    1
