@<TRIPOS>MOLECULE
*****
 43 48 0 0 0
SMALL
GASTEIGER

@<TRIPOS>ATOM
      1 C         141.0306  138.8820  159.4778 C.2     1  UNL1        0.2495
      2 O         140.7864  138.0057  160.6706 O.2     1  UNL1       -0.2699
      3 N         141.0087  140.3744  159.6265 N.am    1  UNL1       -0.2674
      4 C         141.2342  141.3731  158.5303 C.3     1  UNL1        0.1185
      5 C         141.1223  142.7462  159.1238 C.3     1  UNL1        0.1288
      6 C         140.8277  142.5960  160.5869 C.3     1  UNL1        0.0554
      7 C         140.7575  141.1302  160.8976 C.3     1  UNL1        0.1540
      8 C         142.9649  137.5794  156.2665 C.ar    1  UNL1        0.1361
      9 C         142.6989  138.1957  157.6080 C.ar    1  UNL1        0.0411
     10 C         141.2967  138.2658  158.1364 C.ar    1  UNL1        0.0566
     11 C         140.1607  137.7196  157.3232 C.ar    1  UNL1        0.0044
     12 C         140.4268  137.1034  155.9818 C.ar    1  UNL1        0.0002
     13 C         141.8289  137.0333  155.4535 C.ar    1  UNL1        0.0274
     14 C         142.0950  136.4171  154.1121 C.3     1  UNL1        0.0952
     15 N         142.5637  137.2733  152.9731 N.3     1  UNL1       -0.3174
     16 H         141.8270  137.9302  152.7160 H       1  UNL1        0.1192
     17 H         142.7865  136.6819  152.1724 H       1  UNL1        0.1192
     18 C         145.0087  138.7309  155.1497 C.3     1  UNL1        0.2525
     19 O         144.3671  137.5094  155.7382 O.3     1  UNL1       -0.4717
     20 N         141.2778  144.0418  158.3842 N.ar    1  UNL1       -0.2307
     21 C         140.2793  144.6434  157.4401 C.ar    1  UNL1        0.1131
     22 C         140.8435  145.9367  156.9312 C.ar    1  UNL1        0.1005
     23 N         142.1906  146.1345  157.5607 N.ar    1  UNL1       -0.1332
     24 N         142.4590  144.9633  158.4587 N.ar    1  UNL1       -0.0641
     25 C         140.1775  146.8687  155.9627 C.3     1  UNL1        0.0437
     26 C         140.1852  147.6100  154.6587 C.3     1  UNL1        0.0064
     27 C         139.0162  147.7416  155.5894 C.3     1  UNL1        0.0064
     28 C         140.4841  140.5263  162.2431 C.2     1  UNL1        0.2406
     29 O         141.5804  140.4399  163.2633 O.2     1  UNL1       -0.2733
     30 N         139.1144  140.0086  162.5687 N.am    1  UNL1       -0.3043
     31 H         138.3948  140.0652  161.8992 H       1  UNL1        0.1494
     32 C         138.8410  139.4047  163.9141 C.3     1  UNL1        0.0756
     33 C         138.7863  137.9138  164.0700 C.3     1  UNL1        0.0199
     34 C         138.5128  137.3099  165.4155 C.3     1  UNL1        0.0017
     35 C         138.2942  138.1969  166.6053 C.3     1  UNL1        0.0004
     36 C         138.3489  139.6877  166.4494 C.3     1  UNL1        0.0060
     37 C         138.6223  140.2916  165.1040 C.3     1  UNL1        0.0403
     38 C         138.6770  141.7825  164.9482 C.ar    1  UNL1       -0.0209
     39 C         139.8262  142.5551  165.5246 C.ar    1  UNL1       -0.0042
     40 C         139.8810  144.0461  165.3687 C.ar    1  UNL1       -0.0003
     41 C         138.7865  144.7643  164.6366 C.ar    1  UNL1       -0.0000
     42 C         137.6372  143.9917  164.0601 C.ar    1  UNL1       -0.0003
     43 C         137.5825  142.5008  164.2159 C.ar    1  UNL1       -0.0042
@<TRIPOS>BOND
     1    18    19    1
     2    19     8    1
     3     8     9   ar
     4     9    10   ar
     5    10     1    1
     6     1     2    2
     7     1     3   am
     8     3     4    1
     9     4     5    1
    10     5    20    1
    11    20    21   ar
    12    21    22   ar
    13    22    25    1
    14    25    26    1
    15    26    27    1
    16    22    23   ar
    17    23    24   ar
    18     5     6    1
    19     6     7    1
    20     7    28    1
    21    28    29    2
    22    28    30   am
    23    32    30    1
    24    32    33    1
    25    33    34    1
    26    34    35    1
    27    35    36    1
    28    36    37    1
    29    37    38    1
    30    38    39   ar
    31    39    40   ar
    32    40    41   ar
    33    41    42   ar
    34    42    43   ar
    35    10    11   ar
    36    11    12   ar
    37    12    13   ar
    38    13    14    1
    39    14    15    1
    40    13     8   ar
    41     7     3    1
    42    37    32    1
    43    43    38   ar
    44    24    20   ar
    45    27    25    1
    46    30    31    1
    47    15    16    1
    48    15    17    1
@<TRIPOS>MOLECULE
*****
 43 48 0 0 0
SMALL
GASTEIGER

@<TRIPOS>ATOM
      1 C         140.2129  138.7573  159.2613 C.2     1  UNL1        0.2495
      2 O         139.6736  137.8997  160.3677 O.2     1  UNL1       -0.2699
      3 N         140.1341  140.2516  159.3644 N.am    1  UNL1       -0.2674
      4 C         140.6283  141.2332  158.3435 C.3     1  UNL1        0.1185
      5 C         140.3470  142.6150  158.8546 C.3     1  UNL1        0.1288
      6 C         139.6789  142.4876  160.1916 C.3     1  UNL1        0.0554
      7 C         139.5473  141.0269  160.5066 C.3     1  UNL1        0.1540
      8 C         140.5767  136.9908  155.7262 C.ar    1  UNL1        0.1361
      9 C         139.9587  137.6276  156.9356 C.ar    1  UNL1        0.0411
     10 C         140.8309  138.1205  158.0520 C.ar    1  UNL1        0.0566
     11 C         142.3211  137.9764  157.9591 C.ar    1  UNL1        0.0044
     12 C         142.9391  137.3396  156.7498 C.ar    1  UNL1        0.0002
     13 C         142.0669  136.8468  155.6333 C.ar    1  UNL1        0.0274
     14 C         142.6849  136.2100  154.4240 C.3     1  UNL1        0.0952
     15 N         142.2766  136.6548  153.0509 N.3     1  UNL1       -0.3174
     16 H         141.2990  136.4113  152.8912 H       1  UNL1        0.1192
     17 H         142.8606  136.1904  152.3554 H       1  UNL1        0.1192
     18 C         138.7031  137.4188  153.9780 C.3     1  UNL1        0.2525
     19 O         139.7046  136.4979  154.6098 O.3     1  UNL1       -0.4717
     20 N         140.6760  143.8989  158.1522 N.ar    1  UNL1       -0.2307
     21 C         139.8088  144.6039  157.1517 C.ar    1  UNL1        0.1131
     22 C         140.5269  145.8439  156.7082 C.ar    1  UNL1        0.1005
     23 N         141.8379  145.9053  157.4345 N.ar    1  UNL1       -0.1332
     24 N         141.9301  144.7032  158.3270 N.ar    1  UNL1       -0.0641
     25 C         140.0225  146.8465  155.7130 C.3     1  UNL1        0.0437
     26 C         138.9465  147.7777  155.2385 C.3     1  UNL1        0.0064
     27 C         140.2247  147.6517  154.4637 C.3     1  UNL1        0.0064
     28 C         138.9362  140.4440  161.7463 C.2     1  UNL1        0.2406
     29 O         137.4451  140.3316  161.8659 O.2     1  UNL1       -0.2733
     30 N         139.8160  139.9733  162.8663 N.am    1  UNL1       -0.3043
     31 H         140.7946  140.0470  162.7878 H       1  UNL1        0.1494
     32 C         139.2049  139.3904  164.1059 C.3     1  UNL1        0.0756
     33 C         139.0856  137.9026  164.2549 C.3     1  UNL1        0.0199
     34 C         138.4744  137.3196  165.4946 C.3     1  UNL1        0.0017
     35 C         137.9826  138.2245  166.5851 C.3     1  UNL1        0.0004
     36 C         138.1019  139.7123  166.4361 C.3     1  UNL1        0.0060
     37 C         138.7130  140.2952  165.1965 C.3     1  UNL1        0.0403
     38 C         138.8323  141.7830  165.0475 C.ar    1  UNL1       -0.0209
     39 C         137.6822  142.5768  164.5025 C.ar    1  UNL1       -0.0042
     40 C         137.8015  144.0646  164.3534 C.ar    1  UNL1       -0.0003
     41 C         139.0709  144.7586  164.7493 C.ar    1  UNL1       -0.0000
     42 C         140.2212  143.9649  165.2942 C.ar    1  UNL1       -0.0003
     43 C         140.1018  142.4771  165.4433 C.ar    1  UNL1       -0.0042
@<TRIPOS>BOND
     1    18    19    1
     2    19     8    1
     3     8     9   ar
     4     9    10   ar
     5    10     1    1
     6     1     2    2
     7     1     3   am
     8     3     4    1
     9     4     5    1
    10     5    20    1
    11    20    21   ar
    12    21    22   ar
    13    22    25    1
    14    25    26    1
    15    26    27    1
    16    22    23   ar
    17    23    24   ar
    18     5     6    1
    19     6     7    1
    20     7    28    1
    21    28    29    2
    22    28    30   am
    23    32    30    1
    24    32    33    1
    25    33    34    1
    26    34    35    1
    27    35    36    1
    28    36    37    1
    29    37    38    1
    30    38    39   ar
    31    39    40   ar
    32    40    41   ar
    33    41    42   ar
    34    42    43   ar
    35    10    11   ar
    36    11    12   ar
    37    12    13   ar
    38    13    14    1
    39    14    15    1
    40    13     8   ar
    41     7     3    1
    42    37    32    1
    43    43    38   ar
    44    24    20   ar
    45    27    25    1
    46    30    31    1
    47    15    16    1
    48    15    17    1
@<TRIPOS>MOLECULE
*****
 43 48 0 0 0
SMALL
GASTEIGER

@<TRIPOS>ATOM
      1 C         138.3806  141.8884  158.3632 C.2     1  UNL1        0.2495
      2 O         138.0983  142.8791  159.4536 O.2     1  UNL1       -0.2699
      3 N         139.5315  140.9355  158.4952 N.am    1  UNL1       -0.2674
      4 C         139.9341  139.8950  157.4926 C.3     1  UNL1        0.1185
      5 C         141.1333  139.1723  158.0307 C.3     1  UNL1        0.1288
      6 C         141.4718  139.7661  159.3659 C.3     1  UNL1        0.0554
      7 C         140.4818  140.8558  159.6530 C.3     1  UNL1        0.1540
      8 C         135.6253  140.7233  155.7552 C.ar    1  UNL1        0.1361
      9 C         136.4940  140.7611  156.9776 C.ar    1  UNL1        0.0411
     10 C         137.5120  141.8506  157.1409 C.ar    1  UNL1        0.0566
     11 C         137.6613  142.9024  156.0818 C.ar    1  UNL1        0.0044
     12 C         136.7927  142.8645  154.8595 C.ar    1  UNL1        0.0002
     13 C         135.7747  141.7750  154.6962 C.ar    1  UNL1        0.0274
     14 C         134.9061  141.7372  153.4740 C.3     1  UNL1        0.0952
     15 N         133.4537  141.3829  153.5966 N.3     1  UNL1       -0.3174
     16 H         133.3648  140.4129  153.8993 H       1  UNL1        0.1192
     17 H         132.9976  141.4999  152.6918 H       1  UNL1        0.1192
     18 C         133.5497  139.4329  156.6365 C.3     1  UNL1        0.2525
     19 O         134.6074  139.6338  155.5920 O.3     1  UNL1       -0.4717
     20 N         141.8654  138.0524  157.3527 N.ar    1  UNL1       -0.2307
     21 C         141.2389  136.8473  156.7160 C.ar    1  UNL1        0.1131
     22 C         142.3389  135.9911  156.1621 C.ar    1  UNL1        0.1005
     23 N         143.6453  136.6669  156.4564 N.ar    1  UNL1       -0.1332
     24 N         143.3527  137.9409  157.1922 N.ar    1  UNL1       -0.0641
     25 C         142.1634  134.6878  155.4406 C.3     1  UNL1        0.0437
     26 C         141.9873  133.1985  155.4729 C.3     1  UNL1        0.0064
     27 C         142.0354  133.9197  154.1585 C.3     1  UNL1        0.0064
     28 C         140.4481  141.7150  160.8821 C.2     1  UNL1        0.2406
     29 O         141.5540  142.6944  161.1431 O.2     1  UNL1       -0.2733
     30 N         139.3087  141.5950  161.8502 N.am    1  UNL1       -0.3043
     31 H         138.5829  140.9523  161.6789 H       1  UNL1        0.1494
     32 C         139.2751  142.4542  163.0792 C.3     1  UNL1        0.0756
     33 C         138.8842  143.8985  162.9742 C.3     1  UNL1        0.0199
     34 C         138.8506  144.7577  164.2033 C.3     1  UNL1        0.0017
     35 C         139.2078  144.1726  165.5374 C.3     1  UNL1        0.0004
     36 C         139.5986  142.7282  165.6425 C.3     1  UNL1        0.0060
     37 C         139.6322  141.8690  164.4135 C.3     1  UNL1        0.0403
     38 C         140.0231  140.4247  164.5185 C.ar    1  UNL1       -0.0209
     39 C         138.9765  139.3814  164.7760 C.ar    1  UNL1       -0.0042
     40 C         139.3674  137.9369  164.8810 C.ar    1  UNL1       -0.0003
     41 C         140.8046  137.5359  164.7287 C.ar    1  UNL1       -0.0000
     42 C         141.8512  138.5792  164.4712 C.ar    1  UNL1       -0.0003
     43 C         141.4604  140.0235  164.3661 C.ar    1  UNL1       -0.0042
@<TRIPOS>BOND
     1    18    19    1
     2    19     8    1
     3     8     9   ar
     4     9    10   ar
     5    10     1    1
     6     1     2    2
     7     1     3   am
     8     3     4    1
     9     4     5    1
    10     5    20    1
    11    20    21   ar
    12    21    22   ar
    13    22    25    1
    14    25    26    1
    15    26    27    1
    16    22    23   ar
    17    23    24   ar
    18     5     6    1
    19     6     7    1
    20     7    28    1
    21    28    29    2
    22    28    30   am
    23    32    30    1
    24    32    33    1
    25    33    34    1
    26    34    35    1
    27    35    36    1
    28    36    37    1
    29    37    38    1
    30    38    39   ar
    31    39    40   ar
    32    40    41   ar
    33    41    42   ar
    34    42    43   ar
    35    10    11   ar
    36    11    12   ar
    37    12    13   ar
    38    13    14    1
    39    14    15    1
    40    13     8   ar
    41     7     3    1
    42    37    32    1
    43    43    38   ar
    44    24    20   ar
    45    27    25    1
    46    30    31    1
    47    15    16    1
    48    15    17    1
@<TRIPOS>MOLECULE
*****
 43 48 0 0 0
SMALL
GASTEIGER

@<TRIPOS>ATOM
      1 C         140.0035  142.6868  159.9775 C.2     1  UNL1        0.2495
      2 O         139.4053  143.0394  161.3072 O.2     1  UNL1       -0.2699
      3 N         140.6845  141.3637  159.7887 N.am    1  UNL1       -0.2674
      4 C         141.3255  140.8746  158.5238 C.3     1  UNL1        0.1185
      5 C         141.8813  139.5060  158.7850 C.3     1  UNL1        0.1288
      6 C         141.5838  139.1493  160.2112 C.3     1  UNL1        0.0554
      7 C         140.8442  140.2974  160.8315 C.3     1  UNL1        0.1540
      8 C         138.9715  144.3198  156.5108 C.ar    1  UNL1        0.1361
      9 C         139.0543  143.3493  157.6516 C.ar    1  UNL1        0.0411
     10 C         139.9206  143.6572  158.8368 C.ar    1  UNL1        0.0566
     11 C         140.7041  144.9357  158.8812 C.ar    1  UNL1        0.0044
     12 C         140.6212  145.9061  157.7404 C.ar    1  UNL1        0.0002
     13 C         139.7549  145.5982  156.5552 C.ar    1  UNL1        0.0274
     14 C         139.6720  146.5686  155.4145 C.3     1  UNL1        0.0952
     15 N         138.3353  146.9562  154.8551 N.3     1  UNL1       -0.3174
     16 H         137.9003  146.1430  154.4193 H       1  UNL1        0.1192
     17 H         138.4584  147.6904  154.1579 H       1  UNL1        0.1192
     18 C         138.6072  143.0985  154.2468 C.3     1  UNL1        0.2525
     19 O         138.1052  144.0119  155.3256 O.3     1  UNL1       -0.4717
     20 N         142.6071  138.6453  157.7938 N.ar    1  UNL1       -0.2307
     21 C         142.2544  137.2344  157.4264 C.ar    1  UNL1        0.1131
     22 C         143.2424  136.7615  156.4016 C.ar    1  UNL1        0.1005
     23 N         144.2058  137.8801  156.1357 N.ar    1  UNL1       -0.1332
     24 N         143.8132  139.0444  156.9962 N.ar    1  UNL1       -0.0641
     25 C         143.2634  135.4077  155.7560 C.3     1  UNL1        0.0437
     26 C         142.8414  134.4911  154.6462 C.3     1  UNL1        0.0064
     27 C         143.7217  133.9795  155.7477 C.3     1  UNL1        0.0064
     28 C         140.3508  140.3670  162.2464 C.2     1  UNL1        0.2406
     29 O         138.8865  140.2223  162.5380 O.2     1  UNL1       -0.2733
     30 N         141.3215  140.5814  163.3696 N.am    1  UNL1       -0.3043
     31 H         142.2826  140.6764  163.1783 H       1  UNL1        0.1494
     32 C         140.8282  140.6510  164.7844 C.3     1  UNL1        0.0756
     33 C         140.0556  139.5045  165.3665 C.3     1  UNL1        0.0199
     34 C         139.5622  139.5742  166.7814 C.3     1  UNL1        0.0017
     35 C         139.8414  140.7902  167.6140 C.3     1  UNL1        0.0004
     36 C         140.6139  141.9366  167.0319 C.3     1  UNL1        0.0060
     37 C         141.1073  141.8670  165.6171 C.3     1  UNL1        0.0403
     38 C         141.8798  143.0134  165.0350 C.ar    1  UNL1       -0.0209
     39 C         141.1570  144.1281  164.3386 C.ar    1  UNL1       -0.0042
     40 C         141.9296  145.2746  163.7564 C.ar    1  UNL1       -0.0003
     41 C         143.4248  145.3063  163.8706 C.ar    1  UNL1       -0.0000
     42 C         144.1477  144.1916  164.5670 C.ar    1  UNL1       -0.0003
     43 C         143.3751  143.0452  165.1492 C.ar    1  UNL1       -0.0042
@<TRIPOS>BOND
     1    18    19    1
     2    19     8    1
     3     8     9   ar
     4     9    10   ar
     5    10     1    1
     6     1     2    2
     7     1     3   am
     8     3     4    1
     9     4     5    1
    10     5    20    1
    11    20    21   ar
    12    21    22   ar
    13    22    25    1
    14    25    26    1
    15    26    27    1
    16    22    23   ar
    17    23    24   ar
    18     5     6    1
    19     6     7    1
    20     7    28    1
    21    28    29    2
    22    28    30   am
    23    32    30    1
    24    32    33    1
    25    33    34    1
    26    34    35    1
    27    35    36    1
    28    36    37    1
    29    37    38    1
    30    38    39   ar
    31    39    40   ar
    32    40    41   ar
    33    41    42   ar
    34    42    43   ar
    35    10    11   ar
    36    11    12   ar
    37    12    13   ar
    38    13    14    1
    39    14    15    1
    40    13     8   ar
    41     7     3    1
    42    37    32    1
    43    43    38   ar
    44    24    20   ar
    45    27    25    1
    46    30    31    1
    47    15    16    1
    48    15    17    1
@<TRIPOS>MOLECULE
*****
 43 48 0 0 0
SMALL
GASTEIGER

@<TRIPOS>ATOM
      1 C         139.0515  140.9321  159.0919 C.2     1  UNL1        0.2495
      2 O         138.3033  140.7083  160.3726 O.2     1  UNL1       -0.2699
      3 N         140.4942  140.5351  158.9869 N.am    1  UNL1       -0.2674
      4 C         141.3673  140.6961  157.7779 C.3     1  UNL1        0.1185
      5 C         142.7298  140.1680  158.1163 C.3     1  UNL1        0.1288
      6 C         142.6988  139.6805  159.5346 C.3     1  UNL1        0.0554
      7 C         141.3171  139.9074  160.0726 C.3     1  UNL1        0.1540
      8 C         138.0731  143.5332  156.2587 C.ar    1  UNL1        0.1361
      9 C         138.7677  142.9126  157.4345 C.ar    1  UNL1        0.0411
     10 C         138.3569  141.5527  157.9161 C.ar    1  UNL1        0.0566
     11 C         137.2516  140.8135  157.2220 C.ar    1  UNL1        0.0044
     12 C         136.5570  141.4341  156.0463 C.ar    1  UNL1        0.0002
     13 C         136.9678  142.7940  155.5646 C.ar    1  UNL1        0.0274
     14 C         136.2733  143.4146  154.3889 C.3     1  UNL1        0.0952
     15 N         137.0715  144.1200  153.3329 N.3     1  UNL1       -0.3174
     16 H         137.5053  144.9518  153.7334 H       1  UNL1        0.1192
     17 H         136.4558  144.3931  152.5669 H       1  UNL1        0.1192
     18 C         139.9050  145.1466  155.3692 C.3     1  UNL1        0.2525
     19 O         138.4839  144.8931  155.7770 O.3     1  UNL1       -0.4717
     20 N         143.9152  140.1334  157.1978 N.ar    1  UNL1       -0.2307
     21 C         144.9275  141.2264  157.0232 C.ar    1  UNL1        0.1131
     22 C         145.9343  140.7682  156.0101 C.ar    1  UNL1        0.1005
     23 N         145.5442  139.3920  155.5586 N.ar    1  UNL1       -0.1332
     24 N         144.2963  138.9996  156.2926 N.ar    1  UNL1       -0.0641
     25 C         147.1225  141.5491  155.5324 C.3     1  UNL1        0.0437
     26 C         148.6093  141.7226  155.4351 C.3     1  UNL1        0.0064
     27 C         147.6939  142.7283  154.8022 C.3     1  UNL1        0.0064
     28 C         140.8419  139.5664  161.4539 C.2     1  UNL1        0.2406
     29 O         140.6556  138.1317  161.8501 O.2     1  UNL1       -0.2733
     30 N         140.5528  140.6600  162.4390 N.am    1  UNL1       -0.3043
     31 H         140.6750  141.6017  162.1790 H       1  UNL1        0.1494
     32 C         140.0776  140.3191  163.8202 C.3     1  UNL1        0.0756
     33 C         138.6176  140.0885  164.0754 C.3     1  UNL1        0.0199
     34 C         138.1423  139.7475  165.4567 C.3     1  UNL1        0.0017
     35 C         139.1271  139.6371  166.5827 C.3     1  UNL1        0.0004
     36 C         140.5871  139.8676  166.3275 C.3     1  UNL1        0.0060
     37 C         141.0624  140.2086  164.9463 C.3     1  UNL1        0.0403
     38 C         142.5224  140.4392  164.6911 C.ar    1  UNL1       -0.0209
     39 C         143.0913  141.8237  164.7885 C.ar    1  UNL1       -0.0042
     40 C         144.5514  142.0543  164.5332 C.ar    1  UNL1       -0.0003
     41 C         145.4425  140.9005  164.1806 C.ar    1  UNL1       -0.0000
     42 C         144.8736  139.5159  164.0832 C.ar    1  UNL1       -0.0003
     43 C         143.4136  139.2853  164.3385 C.ar    1  UNL1       -0.0042
@<TRIPOS>BOND
     1    18    19    1
     2    19     8    1
     3     8     9   ar
     4     9    10   ar
     5    10     1    1
     6     1     2    2
     7     1     3   am
     8     3     4    1
     9     4     5    1
    10     5    20    1
    11    20    21   ar
    12    21    22   ar
    13    22    25    1
    14    25    26    1
    15    26    27    1
    16    22    23   ar
    17    23    24   ar
    18     5     6    1
    19     6     7    1
    20     7    28    1
    21    28    29    2
    22    28    30   am
    23    32    30    1
    24    32    33    1
    25    33    34    1
    26    34    35    1
    27    35    36    1
    28    36    37    1
    29    37    38    1
    30    38    39   ar
    31    39    40   ar
    32    40    41   ar
    33    41    42   ar
    34    42    43   ar
    35    10    11   ar
    36    11    12   ar
    37    12    13   ar
    38    13    14    1
    39    14    15    1
    40    13     8   ar
    41     7     3    1
    42    37    32    1
    43    43    38   ar
    44    24    20   ar
    45    27    25    1
    46    30    31    1
    47    15    16    1
    48    15    17    1
@<TRIPOS>MOLECULE
*****
 43 48 0 0 0
SMALL
GASTEIGER

@<TRIPOS>ATOM
      1 C         138.6266  142.1357  158.7991 C.2     1  UNL1        0.2495
      2 O         138.1613  142.8317  160.0438 O.2     1  UNL1       -0.2699
      3 N         139.6207  141.0163  158.8929 N.am    1  UNL1       -0.2674
      4 C         140.1754  140.2309  157.7416 C.3     1  UNL1        0.1185
      5 C         141.1321  139.2150  158.2915 C.3     1  UNL1        0.1288
      6 C         141.1687  139.3724  159.7828 C.3     1  UNL1        0.0554
      7 C         140.2346  140.4857  160.1544 C.3     1  UNL1        0.1540
      8 C         138.1889  144.1444  155.4045 C.ar    1  UNL1        0.1361
      9 C         138.7177  143.7210  156.7429 C.ar    1  UNL1        0.0411
     10 C         138.0978  142.5590  157.4608 C.ar    1  UNL1        0.0566
     11 C         136.9491  141.8204  156.8404 C.ar    1  UNL1        0.0044
     12 C         136.4203  142.2437  155.5021 C.ar    1  UNL1        0.0002
     13 C         137.0402  143.4057  154.7841 C.ar    1  UNL1        0.0274
     14 C         136.5115  143.8291  153.4458 C.3     1  UNL1        0.0952
     15 N         137.4171  143.8375  152.2501 N.3     1  UNL1       -0.3174
     16 H         138.1425  144.5430  152.3779 H       1  UNL1        0.1192
     17 H         136.8746  144.0552  151.4142 H       1  UNL1        0.1192
     18 C         138.7972  146.6687  155.3144 C.3     1  UNL1        0.2525
     19 O         138.8088  145.3064  154.6865 O.3     1  UNL1       -0.4717
     20 N         141.9148  138.2169  157.4908 N.ar    1  UNL1       -0.2307
     21 C         141.3721  136.9631  156.8716 C.ar    1  UNL1        0.1131
     22 C         142.4995  136.2687  156.1668 C.ar    1  UNL1        0.1005
     23 N         143.7390  137.0932  156.3505 N.ar    1  UNL1       -0.1332
     24 N         143.3776  138.2974  157.1688 N.ar    1  UNL1       -0.0641
     25 C         142.4042  134.9765  155.4110 C.3     1  UNL1        0.0437
     26 C         142.2785  133.4818  155.4042 C.3     1  UNL1        0.0064
     27 C         142.3648  134.2331  154.1088 C.3     1  UNL1        0.0064
     28 C         139.9623  140.9813  161.5438 C.2     1  UNL1        0.2406
     29 O         139.0810  140.1890  162.4634 O.2     1  UNL1       -0.2733
     30 N         140.5712  142.2691  162.0136 N.am    1  UNL1       -0.3043
     31 H         141.1496  142.7891  161.4101 H       1  UNL1        0.1494
     32 C         140.2988  142.7647  163.4028 C.3     1  UNL1        0.0756
     33 C         139.1462  143.6904  163.6564 C.3     1  UNL1        0.0199
     34 C         138.8738  144.1860  165.0458 C.3     1  UNL1        0.0017
     35 C         139.7542  143.7558  166.1815 C.3     1  UNL1        0.0004
     36 C         140.9068  142.8301  165.9279 C.3     1  UNL1        0.0060
     37 C         141.1792  142.3345  164.5387 C.3     1  UNL1        0.0403
     38 C         142.3318  141.4088  164.2851 C.ar    1  UNL1       -0.0209
     39 C         142.1323  139.9241  164.3621 C.ar    1  UNL1       -0.0042
     40 C         143.2850  138.9983  164.1085 C.ar    1  UNL1       -0.0003
     41 C         144.6371  139.5571  163.7779 C.ar    1  UNL1       -0.0000
     42 C         144.8367  141.0418  163.7009 C.ar    1  UNL1       -0.0003
     43 C         143.6841  141.9676  163.9545 C.ar    1  UNL1       -0.0042
@<TRIPOS>BOND
     1    18    19    1
     2    19     8    1
     3     8     9   ar
     4     9    10   ar
     5    10     1    1
     6     1     2    2
     7     1     3   am
     8     3     4    1
     9     4     5    1
    10     5    20    1
    11    20    21   ar
    12    21    22   ar
    13    22    25    1
    14    25    26    1
    15    26    27    1
    16    22    23   ar
    17    23    24   ar
    18     5     6    1
    19     6     7    1
    20     7    28    1
    21    28    29    2
    22    28    30   am
    23    32    30    1
    24    32    33    1
    25    33    34    1
    26    34    35    1
    27    35    36    1
    28    36    37    1
    29    37    38    1
    30    38    39   ar
    31    39    40   ar
    32    40    41   ar
    33    41    42   ar
    34    42    43   ar
    35    10    11   ar
    36    11    12   ar
    37    12    13   ar
    38    13    14    1
    39    14    15    1
    40    13     8   ar
    41     7     3    1
    42    37    32    1
    43    43    38   ar
    44    24    20   ar
    45    27    25    1
    46    30    31    1
    47    15    16    1
    48    15    17    1
@<TRIPOS>MOLECULE
*****
 43 48 0 0 0
SMALL
GASTEIGER

@<TRIPOS>ATOM
      1 C         141.3247  143.5551  158.9453 C.2     1  UNL1        0.2495
      2 O         141.0235  144.3182  160.2011 O.2     1  UNL1       -0.2699
      3 N         141.7742  142.1263  159.0256 N.am    1  UNL1       -0.2674
      4 C         142.1098  141.2409  157.8622 C.3     1  UNL1        0.1185
      5 C         142.5100  139.8994  158.4008 C.3     1  UNL1        0.1288
      6 C         142.4216  139.9556  159.8972 C.3     1  UNL1        0.0554
      7 C         141.9669  141.3319  160.2832 C.3     1  UNL1        0.1540
      8 C         139.6719  145.3091  155.7923 C.ar    1  UNL1        0.1361
      9 C         139.8201  144.6434  157.1283 C.ar    1  UNL1        0.0411
     10 C         141.1766  144.2209  157.6094 C.ar    1  UNL1        0.0566
     11 C         142.3849  144.4641  156.7545 C.ar    1  UNL1        0.0044
     12 C         142.2367  145.1299  155.4185 C.ar    1  UNL1        0.0002
     13 C         140.8802  145.5524  154.9374 C.ar    1  UNL1        0.0274
     14 C         140.7320  146.2181  153.6015 C.3     1  UNL1        0.0952
     15 N         139.9934  147.5189  153.4895 N.3     1  UNL1       -0.3174
     16 H         139.0100  147.3722  153.7171 H       1  UNL1        0.1192
     17 H         140.0726  147.8738  152.5366 H       1  UNL1        0.1192
     18 C         137.3672  144.7128  154.7516 C.3     1  UNL1        0.2525
     19 O         138.3154  145.7316  155.3112 O.3     1  UNL1       -0.4717
     20 N         142.9255  138.7104  157.5862 N.ar    1  UNL1       -0.2307
     21 C         142.3690  137.3225  157.7045 C.ar    1  UNL1        0.1131
     22 C         143.0701  136.4549  156.7016 C.ar    1  UNL1        0.1005
     23 N         144.0599  137.3066  155.9634 N.ar    1  UNL1       -0.1332
     24 N         143.9705  138.7007  156.5101 N.ar    1  UNL1       -0.0641
     25 C         142.8245  134.9924  156.4765 C.3     1  UNL1        0.0437
     26 C         142.1997  133.8882  155.6763 C.3     1  UNL1        0.0064
     27 C         143.0240  133.5635  156.8867 C.3     1  UNL1        0.0064
     28 C         141.7440  141.8269  161.6816 C.2     1  UNL1        0.2406
     29 O         142.9151  142.2087  162.5377 O.2     1  UNL1       -0.2733
     30 N         140.3500  141.9401  162.2240 N.am    1  UNL1       -0.3043
     31 H         139.5814  141.6895  161.6621 H       1  UNL1        0.1494
     32 C         140.1272  142.4351  163.6222 C.3     1  UNL1        0.0756
     33 C         139.8457  143.8878  163.8677 C.3     1  UNL1        0.0199
     34 C         139.6228  144.3828  165.2660 C.3     1  UNL1        0.0017
     35 C         139.6814  143.4250  166.4189 C.3     1  UNL1        0.0004
     36 C         139.9629  141.9722  166.1734 C.3     1  UNL1        0.0060
     37 C         140.1857  141.4773  164.7752 C.3     1  UNL1        0.0403
     38 C         140.4672  140.0245  164.5297 C.ar    1  UNL1       -0.0209
     39 C         141.8727  139.5078  164.6163 C.ar    1  UNL1       -0.0042
     40 C         142.1542  138.0550  164.3708 C.ar    1  UNL1       -0.0003
     41 C         141.0302  137.1189  164.0388 C.ar    1  UNL1       -0.0000
     42 C         139.6246  137.6356  163.9523 C.ar    1  UNL1       -0.0003
     43 C         139.3432  139.0883  164.1977 C.ar    1  UNL1       -0.0042
@<TRIPOS>BOND
     1    18    19    1
     2    19     8    1
     3     8     9   ar
     4     9    10   ar
     5    10     1    1
     6     1     2    2
     7     1     3   am
     8     3     4    1
     9     4     5    1
    10     5    20    1
    11    20    21   ar
    12    21    22   ar
    13    22    25    1
    14    25    26    1
    15    26    27    1
    16    22    23   ar
    17    23    24   ar
    18     5     6    1
    19     6     7    1
    20     7    28    1
    21    28    29    2
    22    28    30   am
    23    32    30    1
    24    32    33    1
    25    33    34    1
    26    34    35    1
    27    35    36    1
    28    36    37    1
    29    37    38    1
    30    38    39   ar
    31    39    40   ar
    32    40    41   ar
    33    41    42   ar
    34    42    43   ar
    35    10    11   ar
    36    11    12   ar
    37    12    13   ar
    38    13    14    1
    39    14    15    1
    40    13     8   ar
    41     7     3    1
    42    37    32    1
    43    43    38   ar
    44    24    20   ar
    45    27    25    1
    46    30    31    1
    47    15    16    1
    48    15    17    1
@<TRIPOS>MOLECULE
*****
 43 48 0 0 0
SMALL
GASTEIGER

@<TRIPOS>ATOM
      1 C         141.3762  142.6400  160.7206 C.2     1  UNL1        0.2495
      2 O         141.2627  143.0999  162.1439 O.2     1  UNL1       -0.2699
      3 N         141.9279  141.2793  160.4139 N.am    1  UNL1       -0.2674
      4 C         142.1005  140.6854  159.0473 C.3     1  UNL1        0.1185
      5 C         142.6831  139.3126  159.2087 C.3     1  UNL1        0.1288
      6 C         142.8705  139.0580  160.6750 C.3     1  UNL1        0.0554
      7 C         142.4038  140.2735  161.4198 C.3     1  UNL1        0.1540
      8 C         139.4112  144.0034  157.5536 C.ar    1  UNL1        0.1361
      9 C         139.8494  143.1025  158.6701 C.ar    1  UNL1        0.0411
     10 C         140.9381  143.5408  159.6042 C.ar    1  UNL1        0.0566
     11 C         141.5886  144.8801  159.4218 C.ar    1  UNL1        0.0044
     12 C         141.1505  145.7809  158.3054 C.ar    1  UNL1        0.0002
     13 C         140.0618  145.3426  157.3713 C.ar    1  UNL1        0.0274
     14 C         139.6236  146.2434  156.2548 C.3     1  UNL1        0.0952
     15 N         139.2898  147.6784  156.5361 N.3     1  UNL1       -0.3174
     16 H         138.4606  147.7248  157.1283 H       1  UNL1        0.1192
     17 H         139.1078  148.1637  155.6576 H       1  UNL1        0.1192
     18 C         138.6578  142.7439  155.4097 C.3     1  UNL1        0.2525
     19 O         138.3225  143.5650  156.6195 O.3     1  UNL1       -0.4717
     20 N         143.0192  138.3614  158.0986 N.ar    1  UNL1       -0.2307
     21 C         142.6104  136.9205  158.0181 C.ar    1  UNL1        0.1131
     22 C         143.1617  136.3527  156.7439 C.ar    1  UNL1        0.1005
     23 N         143.9113  137.4427  156.0368 N.ar    1  UNL1       -0.1332
     24 N         143.8233  138.6843  156.8741 N.ar    1  UNL1       -0.0641
     25 C         142.9931  134.9425  156.2614 C.3     1  UNL1        0.0437
     26 C         143.5875  133.6146  155.8963 C.3     1  UNL1        0.0064
     27 C         142.1065  133.8278  155.7909 C.3     1  UNL1        0.0064
     28 C         142.4116  140.4518  162.9092 C.2     1  UNL1        0.2406
     29 O         143.6662  140.8889  163.6057 O.2     1  UNL1       -0.2733
     30 N         141.1649  140.1932  163.7022 N.am    1  UNL1       -0.3043
     31 H         140.3414  139.9064  163.2451 H       1  UNL1        0.1494
     32 C         141.1727  140.3716  165.1914 C.3     1  UNL1        0.0756
     33 C         142.0234  139.4821  166.0489 C.3     1  UNL1        0.0199
     34 C         142.0312  139.6605  167.5382 C.3     1  UNL1        0.0017
     35 C         141.1883  140.7283  168.1701 C.3     1  UNL1        0.0004
     36 C         140.3377  141.6178  167.3127 C.3     1  UNL1        0.0060
     37 C         140.3298  141.4394  165.8234 C.3     1  UNL1        0.0403
     38 C         139.4792  142.3289  164.9660 C.ar    1  UNL1       -0.0209
     39 C         138.4221  141.7328  164.0843 C.ar    1  UNL1       -0.0042
     40 C         137.5714  142.6222  163.2268 C.ar    1  UNL1       -0.0003
     41 C         137.7777  144.1077  163.2510 C.ar    1  UNL1       -0.0000
     42 C         138.8348  144.7039  164.1327 C.ar    1  UNL1       -0.0003
     43 C         139.6855  143.8144  164.9901 C.ar    1  UNL1       -0.0042
@<TRIPOS>BOND
     1    18    19    1
     2    19     8    1
     3     8     9   ar
     4     9    10   ar
     5    10     1    1
     6     1     2    2
     7     1     3   am
     8     3     4    1
     9     4     5    1
    10     5    20    1
    11    20    21   ar
    12    21    22   ar
    13    22    25    1
    14    25    26    1
    15    26    27    1
    16    22    23   ar
    17    23    24   ar
    18     5     6    1
    19     6     7    1
    20     7    28    1
    21    28    29    2
    22    28    30   am
    23    32    30    1
    24    32    33    1
    25    33    34    1
    26    34    35    1
    27    35    36    1
    28    36    37    1
    29    37    38    1
    30    38    39   ar
    31    39    40   ar
    32    40    41   ar
    33    41    42   ar
    34    42    43   ar
    35    10    11   ar
    36    11    12   ar
    37    12    13   ar
    38    13    14    1
    39    14    15    1
    40    13     8   ar
    41     7     3    1
    42    37    32    1
    43    43    38   ar
    44    24    20   ar
    45    27    25    1
    46    30    31    1
    47    15    16    1
    48    15    17    1
@<TRIPOS>MOLECULE
*****
 43 48 0 0 0
SMALL
GASTEIGER

@<TRIPOS>ATOM
      1 C         142.2215  143.0474  159.4755 C.2     1  UNL1        0.2495
      2 O         142.4319  143.7193  160.8001 O.2     1  UNL1       -0.2699
      3 N         142.6829  141.6352  159.2692 N.am    1  UNL1       -0.2674
      4 C         142.5420  140.8370  158.0071 C.3     1  UNL1        0.1185
      5 C         143.1383  139.4816  158.2467 C.3     1  UNL1        0.1288
      6 C         143.6478  139.4421  159.6570 C.3     1  UNL1        0.0554
      7 C         143.3663  140.7731  160.2889 C.3     1  UNL1        0.1540
      8 C         139.5138  144.1099  156.7755 C.ar    1  UNL1        0.1361
      9 C         140.1857  143.3694  157.8938 C.ar    1  UNL1        0.0411
     10 C         141.5496  143.7878  158.3574 C.ar    1  UNL1        0.0566
     11 C         142.2415  144.9466  157.7027 C.ar    1  UNL1        0.0044
     12 C         141.5696  145.6870  156.5845 C.ar    1  UNL1        0.0002
     13 C         140.2057  145.2686  156.1209 C.ar    1  UNL1        0.0274
     14 C         139.5338  146.0090  155.0028 C.3     1  UNL1        0.0952
     15 N         138.0476  146.2108  155.0234 N.3     1  UNL1       -0.3174
     16 H         137.5807  145.3082  154.9353 H       1  UNL1        0.1192
     17 H         137.7753  146.8118  154.2455 H       1  UNL1        0.1192
     18 C         137.9255  142.2985  155.8026 C.3     1  UNL1        0.2525
     19 O         138.1500  143.6915  156.3119 O.3     1  UNL1       -0.4717
     20 N         143.2122  138.3624  157.2508 N.ar    1  UNL1       -0.2307
     21 C         142.4525  137.0707  157.3181 C.ar    1  UNL1        0.1131
     22 C         142.8296  136.2483  156.1217 C.ar    1  UNL1        0.1005
     23 N         143.8224  137.0316  155.3150 N.ar    1  UNL1       -0.1332
     24 N         144.0589  138.3382  156.0128 N.ar    1  UNL1       -0.0641
     25 C         142.3058  134.8824  155.7902 C.3     1  UNL1        0.0437
     26 C         142.2619  133.4074  156.0593 C.3     1  UNL1        0.0064
     27 C         141.4425  133.9915  154.9470 C.3     1  UNL1        0.0064
     28 C         143.7082  141.1719  161.6939 C.2     1  UNL1        0.2406
     29 O         145.1441  141.2904  162.1116 O.2     1  UNL1       -0.2733
     30 N         142.6145  141.4522  162.6814 N.am    1  UNL1       -0.3043
     31 H         141.6721  141.3745  162.4073 H       1  UNL1        0.1494
     32 C         142.9564  141.8510  164.0863 C.3     1  UNL1        0.0756
     33 C         143.8550  143.0261  164.3348 C.3     1  UNL1        0.0199
     34 C         144.1969  143.4248  165.7398 C.3     1  UNL1        0.0017
     35 C         143.6403  142.6485  166.8963 C.3     1  UNL1        0.0004
     36 C         142.7417  141.4735  166.6478 C.3     1  UNL1        0.0060
     37 C         142.3998  141.0747  165.2429 C.3     1  UNL1        0.0403
     38 C         141.5012  139.8996  164.9944 C.ar    1  UNL1       -0.0209
     39 C         140.0128  140.0846  164.9751 C.ar    1  UNL1       -0.0042
     40 C         139.1141  138.9094  164.7265 C.ar    1  UNL1       -0.0003
     41 C         139.7039  137.5495  164.4974 C.ar    1  UNL1       -0.0000
     42 C         141.1924  137.3645  164.5167 C.ar    1  UNL1       -0.0003
     43 C         142.0910  138.5396  164.7652 C.ar    1  UNL1       -0.0042
@<TRIPOS>BOND
     1    18    19    1
     2    19     8    1
     3     8     9   ar
     4     9    10   ar
     5    10     1    1
     6     1     2    2
     7     1     3   am
     8     3     4    1
     9     4     5    1
    10     5    20    1
    11    20    21   ar
    12    21    22   ar
    13    22    25    1
    14    25    26    1
    15    26    27    1
    16    22    23   ar
    17    23    24   ar
    18     5     6    1
    19     6     7    1
    20     7    28    1
    21    28    29    2
    22    28    30   am
    23    32    30    1
    24    32    33    1
    25    33    34    1
    26    34    35    1
    27    35    36    1
    28    36    37    1
    29    37    38    1
    30    38    39   ar
    31    39    40   ar
    32    40    41   ar
    33    41    42   ar
    34    42    43   ar
    35    10    11   ar
    36    11    12   ar
    37    12    13   ar
    38    13    14    1
    39    14    15    1
    40    13     8   ar
    41     7     3    1
    42    37    32    1
    43    43    38   ar
    44    24    20   ar
    45    27    25    1
    46    30    31    1
    47    15    16    1
    48    15    17    1
