@<TRIPOS>MOLECULE
*****
 28 31 0 0 0
SMALL
GASTEIGER

@<TRIPOS>ATOM
      1 C         139.7424  140.0086  166.9571 C.3     1  UNL1        0.0851
      2 C         138.4811  139.3868  167.4790 C.3     1  UNL1        0.0096
      3 C         137.8644  138.2244  166.7591 C.3     1  UNL1        0.0005
      4 C         138.5090  137.6837  165.5173 C.3     1  UNL1        0.0005
      5 C         139.7703  138.3055  164.9954 C.3     1  UNL1        0.0096
      6 C         140.3870  139.4679  165.7153 C.3     1  UNL1        0.0853
      7 C         141.6483  140.0898  165.1933 C.2     1  UNL1        0.2257
      8 O         142.9620  139.7857  165.8504 O.2     1  UNL1       -0.2749
      9 N         141.5959  141.0157  164.0144 N.am    1  UNL1       -0.2760
     10 C         140.2821  141.3197  163.3573 C.3     1  UNL1        0.1149
     11 C         140.2297  142.2457  162.1784 C.3     1  UNL1        0.1141
     12 N         141.4911  142.8675  161.6565 N.pl3   1  UNL1       -0.2846
     13 C         142.8048  142.5634  162.3135 C.3     1  UNL1        0.1141
     14 C         142.8572  141.6375  163.4924 C.3     1  UNL1        0.1149
     15 C         141.4387  143.7934  160.4775 C.ar    1  UNL1        0.1632
     16 N         142.5234  143.9873  159.4598 N.ar    1  UNL1       -0.2225
     17 C         142.0474  145.0017  158.4625 C.ar    1  UNL1        0.1079
     18 C         140.6686  145.4348  158.8639 C.ar    1  UNL1        0.0588
     19 S         140.2923  144.6880  160.1093 S.2     1  UNL1       -0.0509
     20 N         141.0339  140.9615  169.0002 N.am    1  UNL1       -0.2959
     21 C         140.3591  141.1711  167.6770 C.2     1  UNL1        0.2231
     22 O         140.3011  142.5432  167.0737 O.2     1  UNL1       -0.2751
     23 H         141.0720  140.0610  169.3961 H       1  UNL1        0.1502
     24 C         141.6507  142.1241  169.7201 C.3     1  UNL1        0.1364
     25 C         142.6854  143.1037  170.1887 C.3     1  UNL1        0.0353
     26 C         143.0686  142.0011  169.2465 C.3     1  UNL1        0.0353
     27 N         139.2429  143.1774  171.1669 N.1     1  UNL1       -0.1943
     28 C         140.4468  142.6507  170.4435 C.1     1  UNL1        0.0896
@<TRIPOS>BOND
     1    27    28    3
     2    28    24    1
     3    24    20    1
     4    20    21   am
     5    21    22    2
     6     1    21    1
     7     1     2    1
     8     2     3    1
     9     3     4    1
    10     4     5    1
    11     5     6    1
    12     6     7    1
    13     7     8    2
    14     7     9   am
    15     9    10    1
    16    10    11    1
    17    11    12    1
    18    12    15    1
    19    15    16   ar
    20    16    17   ar
    21    17    18   ar
    22    18    19   ar
    23    12    13    1
    24    13    14    1
    25    24    25    1
    26    25    26    1
    27    26    24    1
    28     6     1    1
    29    14     9    1
    30    19    15   ar
    31    20    23    1
@<TRIPOS>MOLECULE
*****
 28 31 0 0 0
SMALL
GASTEIGER

@<TRIPOS>ATOM
      1 C         140.5386  139.7795  165.0450 C.3     1  UNL1        0.0851
      2 C         140.2142  140.2750  166.4231 C.3     1  UNL1        0.0096
      3 C         139.0790  139.6657  167.1912 C.3     1  UNL1        0.0005
      4 C         138.2682  138.5609  166.5813 C.3     1  UNL1        0.0005
      5 C         138.5925  138.0655  165.2031 C.3     1  UNL1        0.0096
      6 C         139.7278  138.6747  164.4350 C.3     1  UNL1        0.0853
      7 C         140.0522  138.1793  163.0568 C.2     1  UNL1        0.2257
      8 O         140.9411  136.9841  162.8794 O.2     1  UNL1       -0.2749
      9 N         139.4877  138.8790  161.8561 N.am    1  UNL1       -0.2760
     10 C         138.5988  140.0742  162.0336 C.3     1  UNL1        0.1149
     11 C         138.0343  140.7739  160.8329 C.3     1  UNL1        0.1141
     12 N         138.3587  140.2784  159.4547 N.pl3   1  UNL1       -0.2846
     13 C         139.2476  139.0833  159.2773 C.3     1  UNL1        0.1141
     14 C         139.8121  138.3836  160.4780 C.3     1  UNL1        0.1149
     15 C         137.7942  140.9781  158.2539 C.ar    1  UNL1        0.1632
     16 N         136.7889  140.4121  157.2953 N.ar    1  UNL1       -0.2225
     17 C         136.5093  141.4509  156.2499 C.ar    1  UNL1        0.1079
     18 C         137.3417  142.6589  156.5625 C.ar    1  UNL1        0.0588
     19 S         138.1358  142.3667  157.8010 S.2     1  UNL1       -0.0509
     20 N         143.0374  139.7663  164.3337 N.am    1  UNL1       -0.2959
     21 C         141.6738  140.3888  164.2768 C.2     1  UNL1        0.2231
     22 O         141.4455  141.6204  163.4517 O.2     1  UNL1       -0.2751
     23 H         143.1873  138.9579  164.8753 H       1  UNL1        0.1502
     24 C         144.1727  140.3756  163.5655 C.3     1  UNL1        0.1364
     25 C         145.3244  141.2758  163.2291 C.3     1  UNL1        0.0353
     26 C         144.6143  141.4250  164.5421 C.3     1  UNL1        0.0353
     27 N         144.0775  138.6997  161.0791 N.1     1  UNL1       -0.1943
     28 C         144.1251  139.5377  162.3223 C.1     1  UNL1        0.0896
@<TRIPOS>BOND
     1    27    28    3
     2    28    24    1
     3    24    20    1
     4    20    21   am
     5    21    22    2
     6     1    21    1
     7     1     2    1
     8     2     3    1
     9     3     4    1
    10     4     5    1
    11     5     6    1
    12     6     7    1
    13     7     8    2
    14     7     9   am
    15     9    10    1
    16    10    11    1
    17    11    12    1
    18    12    15    1
    19    15    16   ar
    20    16    17   ar
    21    17    18   ar
    22    18    19   ar
    23    12    13    1
    24    13    14    1
    25    24    25    1
    26    25    26    1
    27    26    24    1
    28     6     1    1
    29    14     9    1
    30    19    15   ar
    31    20    23    1
@<TRIPOS>MOLECULE
*****
 28 31 0 0 0
SMALL
GASTEIGER

@<TRIPOS>ATOM
      1 C         140.8797  140.6879  165.0275 C.3     1  UNL1        0.0851
      2 C         140.6946  139.2301  165.3285 C.3     1  UNL1        0.0096
      3 C         139.3131  138.6615  165.4622 C.3     1  UNL1        0.0005
      4 C         138.1166  139.5506  165.2949 C.3     1  UNL1        0.0005
      5 C         138.3017  141.0083  164.9939 C.3     1  UNL1        0.0096
      6 C         139.6833  141.5770  164.8602 C.3     1  UNL1        0.0853
      7 C         139.8684  143.0348  164.5592 C.2     1  UNL1        0.2257
      8 O         139.7950  144.0444  165.6661 O.2     1  UNL1       -0.2749
      9 N         140.1270  143.4829  163.1512 N.am    1  UNL1       -0.2760
     10 C         140.2004  142.4732  162.0443 C.3     1  UNL1        0.1149
     11 C         140.4590  142.9214  160.6364 C.3     1  UNL1        0.1141
     12 N         140.6441  144.3792  160.3353 N.pl3   1  UNL1       -0.2846
     13 C         140.5707  145.3888  161.4422 C.3     1  UNL1        0.1141
     14 C         140.3121  144.9407  162.8502 C.3     1  UNL1        0.1149
     15 C         140.9027  144.8274  158.9274 C.ar    1  UNL1        0.1632
     16 N         142.0191  145.7227  158.4781 N.ar    1  UNL1       -0.2225
     17 C         141.8966  145.9076  156.9945 C.ar    1  UNL1        0.1079
     18 C         140.7045  145.1264  156.5270 C.ar    1  UNL1        0.0588
     19 S         140.0902  144.4588  157.7215 S.2     1  UNL1       -0.0509
     20 N         143.0489  141.0263  163.6381 N.am    1  UNL1       -0.2959
     21 C         142.2613  141.2566  164.8938 C.2     1  UNL1        0.2231
     22 O         142.8553  142.0556  166.0157 O.2     1  UNL1       -0.2751
     23 H         142.6590  140.5020  162.9017 H       1  UNL1        0.1502
     24 C         144.4305  141.5951  163.5044 C.3     1  UNL1        0.1364
     25 C         145.9221  141.7138  163.6089 C.3     1  UNL1        0.0353
     26 C         145.2272  140.4969  164.1440 C.3     1  UNL1        0.0353
     27 N         143.7963  144.1864  162.1322 N.1     1  UNL1       -0.1943
     28 C         144.1134  142.8908  162.8183 C.1     1  UNL1        0.0896
@<TRIPOS>BOND
     1    27    28    3
     2    28    24    1
     3    24    20    1
     4    20    21   am
     5    21    22    2
     6     1    21    1
     7     1     2    1
     8     2     3    1
     9     3     4    1
    10     4     5    1
    11     5     6    1
    12     6     7    1
    13     7     8    2
    14     7     9   am
    15     9    10    1
    16    10    11    1
    17    11    12    1
    18    12    15    1
    19    15    16   ar
    20    16    17   ar
    21    17    18   ar
    22    18    19   ar
    23    12    13    1
    24    13    14    1
    25    24    25    1
    26    25    26    1
    27    26    24    1
    28     6     1    1
    29    14     9    1
    30    19    15   ar
    31    20    23    1
@<TRIPOS>MOLECULE
*****
 28 31 0 0 0
SMALL
GASTEIGER

@<TRIPOS>ATOM
      1 C         140.0281  142.2730  165.1499 C.3     1  UNL1        0.0851
      2 C         140.0916  143.7103  165.5743 C.3     1  UNL1        0.0096
      3 C         138.9165  144.6133  165.3425 C.3     1  UNL1        0.0005
      4 C         137.6780  144.0791  164.6863 C.3     1  UNL1        0.0005
      5 C         137.6145  142.6418  164.2619 C.3     1  UNL1        0.0096
      6 C         138.7895  141.7388  164.4937 C.3     1  UNL1        0.0853
      7 C         138.7260  140.3014  164.0692 C.2     1  UNL1        0.2257
      8 O         138.3590  139.2410  165.0646 O.2     1  UNL1       -0.2749
      9 N         139.0295  139.9246  162.6494 N.am    1  UNL1       -0.2760
     10 C         139.3965  140.9851  161.6540 C.3     1  UNL1        0.1149
     11 C         139.7001  140.6083  160.2342 C.3     1  UNL1        0.1141
     12 N         139.6366  139.1709  159.8098 N.pl3   1  UNL1       -0.2846
     13 C         139.2696  138.1105  160.8051 C.3     1  UNL1        0.1141
     14 C         138.9661  138.4873  162.2250 C.3     1  UNL1        0.1149
     15 C         139.9401  138.7941  158.3900 C.ar    1  UNL1        0.1632
     16 N         139.0061  138.9262  157.2237 N.ar    1  UNL1       -0.2225
     17 C         139.7197  138.4327  156.0001 C.ar    1  UNL1        0.1079
     18 C         141.0947  137.9956  156.4101 C.ar    1  UNL1        0.0588
     19 S         141.2310  138.2189  157.8871 S.2     1  UNL1       -0.0509
     20 N         141.0467  140.1356  166.2196 N.am    1  UNL1       -0.2959
     21 C         141.2031  141.3699  165.3816 C.2     1  UNL1        0.2231
     22 O         142.5346  141.7010  164.7754 O.2     1  UNL1       -0.2751
     23 H         140.1728  139.9183  166.6174 H       1  UNL1        0.1502
     24 C         142.2218  139.2325  166.4513 C.3     1  UNL1        0.1364
     25 C         143.2614  138.1802  166.2027 C.3     1  UNL1        0.0353
     26 C         142.2399  138.4892  165.1486 C.3     1  UNL1        0.0353
     27 N         143.0014  140.0919  169.2179 N.1     1  UNL1       -0.1943
     28 C         142.6116  139.6622  167.8345 C.1     1  UNL1        0.0896
@<TRIPOS>BOND
     1    27    28    3
     2    28    24    1
     3    24    20    1
     4    20    21   am
     5    21    22    2
     6     1    21    1
     7     1     2    1
     8     2     3    1
     9     3     4    1
    10     4     5    1
    11     5     6    1
    12     6     7    1
    13     7     8    2
    14     7     9   am
    15     9    10    1
    16    10    11    1
    17    11    12    1
    18    12    15    1
    19    15    16   ar
    20    16    17   ar
    21    17    18   ar
    22    18    19   ar
    23    12    13    1
    24    13    14    1
    25    24    25    1
    26    25    26    1
    27    26    24    1
    28     6     1    1
    29    14     9    1
    30    19    15   ar
    31    20    23    1
@<TRIPOS>MOLECULE
*****
 28 31 0 0 0
SMALL
GASTEIGER

@<TRIPOS>ATOM
      1 C         139.4055  141.4465  165.5876 C.3     1  UNL1        0.0851
      2 C         139.8517  141.1291  166.9841 C.3     1  UNL1        0.0096
      3 C         139.3635  139.8836  167.6625 C.3     1  UNL1        0.0005
      4 C         138.4291  138.9555  166.9446 C.3     1  UNL1        0.0005
      5 C         137.9829  139.2729  165.5481 C.3     1  UNL1        0.0096
      6 C         138.4711  140.5184  164.8697 C.3     1  UNL1        0.0853
      7 C         138.0248  140.8358  163.4731 C.2     1  UNL1        0.2257
      8 O         136.8666  141.7620  163.2482 O.2     1  UNL1       -0.2749
      9 N         138.7369  140.2270  162.3017 N.am    1  UNL1       -0.2760
     10 C         139.8952  139.3008  162.5267 C.3     1  UNL1        0.1149
     11 C         140.6072  138.6920  161.3552 C.3     1  UNL1        0.1141
     12 N         140.1610  139.0094  159.9587 N.pl3   1  UNL1       -0.2846
     13 C         139.0028  139.9356  159.7337 C.3     1  UNL1        0.1141
     14 C         138.2907  140.5444  160.9052 C.3     1  UNL1        0.1149
     15 C         140.8730  138.4007  158.7872 C.ar    1  UNL1        0.1632
     16 N         142.3266  138.0343  158.7322 N.ar    1  UNL1       -0.2225
     17 C         142.6085  137.4585  157.3760 C.ar    1  UNL1        0.1079
     18 C         141.3291  137.4691  156.5929 C.ar    1  UNL1        0.0588
     19 S         140.2566  138.0514  157.4651 S.2     1  UNL1       -0.0509
     20 N         140.9558  142.6040  163.8536 N.am    1  UNL1       -0.2959
     21 C         139.8936  142.6921  164.9091 C.2     1  UNL1        0.2231
     22 O         139.3196  144.0256  165.2860 O.2     1  UNL1       -0.2751
     23 H         141.3325  141.7288  163.6062 H       1  UNL1        0.1502
     24 C         141.4440  143.8496  163.1751 C.3     1  UNL1        0.1364
     25 C         142.2855  145.0550  162.8771 C.3     1  UNL1        0.0353
     26 C         142.6311  144.1666  164.0354 C.3     1  UNL1        0.0353
     27 N         139.4087  144.0803  160.9831 N.1     1  UNL1       -0.1943
     28 C         140.4263  143.9650  162.0792 C.1     1  UNL1        0.0896
@<TRIPOS>BOND
     1    27    28    3
     2    28    24    1
     3    24    20    1
     4    20    21   am
     5    21    22    2
     6     1    21    1
     7     1     2    1
     8     2     3    1
     9     3     4    1
    10     4     5    1
    11     5     6    1
    12     6     7    1
    13     7     8    2
    14     7     9   am
    15     9    10    1
    16    10    11    1
    17    11    12    1
    18    12    15    1
    19    15    16   ar
    20    16    17   ar
    21    17    18   ar
    22    18    19   ar
    23    12    13    1
    24    13    14    1
    25    24    25    1
    26    25    26    1
    27    26    24    1
    28     6     1    1
    29    14     9    1
    30    19    15   ar
    31    20    23    1
@<TRIPOS>MOLECULE
*****
 28 31 0 0 0
SMALL
GASTEIGER

@<TRIPOS>ATOM
      1 C         140.1668  142.3761  164.8196 C.3     1  UNL1        0.0851
      2 C         140.3182  143.8129  165.2228 C.3     1  UNL1        0.0096
      3 C         139.1371  144.7358  165.1674 C.3     1  UNL1        0.0005
      4 C         137.8046  144.2219  164.7087 C.3     1  UNL1        0.0005
      5 C         137.6532  142.7851  164.3055 C.3     1  UNL1        0.0096
      6 C         138.8343  141.8622  164.3610 C.3     1  UNL1        0.0853
      7 C         138.6830  140.4253  163.9578 C.2     1  UNL1        0.2257
      8 O         138.1733  139.4187  164.9461 O.2     1  UNL1       -0.2749
      9 N         139.0413  139.9951  162.5662 N.am    1  UNL1       -0.2760
     10 C         139.5510  141.0018  161.5778 C.3     1  UNL1        0.1149
     11 C         139.9093  140.5717  160.1862 C.3     1  UNL1        0.1141
     12 N         139.7580  139.1348  159.7830 N.pl3   1  UNL1       -0.2846
     13 C         139.2483  138.1281  160.7714 C.3     1  UNL1        0.1141
     14 C         138.8900  138.5583  162.1629 C.3     1  UNL1        0.1149
     15 C         140.1163  138.7046  158.3914 C.ar    1  UNL1        0.1632
     16 N         139.1813  138.6397  157.2203 N.ar    1  UNL1       -0.2225
     17 C         139.9597  138.1588  156.0317 C.ar    1  UNL1        0.1079
     18 C         141.3758  137.9264  156.4682 C.ar    1  UNL1        0.0588
     19 S         141.4726  138.2637  157.9265 S.2     1  UNL1       -0.0509
     20 N         142.3372  141.4324  163.7477 N.am    1  UNL1       -0.2959
     21 C         141.3480  141.4531  164.8751 C.2     1  UNL1        0.2231
     22 O         141.5398  140.5508  166.0579 O.2     1  UNL1       -0.2751
     23 H         142.2113  142.0246  162.9714 H       1  UNL1        0.1502
     24 C         143.5184  140.5094  163.8032 C.3     1  UNL1        0.1364
     25 C         144.9070  140.0120  164.0756 C.3     1  UNL1        0.0353
     26 C         144.5262  141.4145  164.4474 C.3     1  UNL1        0.0353
     27 N         142.3229  138.0583  162.5529 N.1     1  UNL1       -0.1943
     28 C         142.9207  139.2838  163.1781 C.1     1  UNL1        0.0896
@<TRIPOS>BOND
     1    27    28    3
     2    28    24    1
     3    24    20    1
     4    20    21   am
     5    21    22    2
     6     1    21    1
     7     1     2    1
     8     2     3    1
     9     3     4    1
    10     4     5    1
    11     5     6    1
    12     6     7    1
    13     7     8    2
    14     7     9   am
    15     9    10    1
    16    10    11    1
    17    11    12    1
    18    12    15    1
    19    15    16   ar
    20    16    17   ar
    21    17    18   ar
    22    18    19   ar
    23    12    13    1
    24    13    14    1
    25    24    25    1
    26    25    26    1
    27    26    24    1
    28     6     1    1
    29    14     9    1
    30    19    15   ar
    31    20    23    1
@<TRIPOS>MOLECULE
*****
 28 31 0 0 0
SMALL
GASTEIGER

@<TRIPOS>ATOM
      1 C         140.1051  141.0269  161.0670 C.3     1  UNL1        0.0851
      2 C         141.0591  141.4610  159.9940 C.3     1  UNL1        0.0096
      3 C         141.9359  140.4502  159.3163 C.3     1  UNL1        0.0005
      4 C         141.8586  139.0052  159.7115 C.3     1  UNL1        0.0005
      5 C         140.9046  138.5711  160.7844 C.3     1  UNL1        0.0096
      6 C         140.0278  139.5820  161.4622 C.3     1  UNL1        0.0853
      7 C         139.0736  139.1479  162.5352 C.2     1  UNL1        0.2257
      8 O         137.7637  138.5183  162.1642 O.2     1  UNL1       -0.2749
      9 N         139.4295  139.3435  163.9792 N.am    1  UNL1       -0.2760
     10 C         140.7395  139.9732  164.3502 C.3     1  UNL1        0.1149
     11 C         141.0953  140.1688  165.7942 C.3     1  UNL1        0.1141
     12 N         140.1412  139.7347  166.8672 N.pl3   1  UNL1       -0.2846
     13 C         138.8313  139.1051  166.4962 C.3     1  UNL1        0.1141
     14 C         138.4754  138.9095  165.0522 C.3     1  UNL1        0.1149
     15 C         140.4970  139.9303  168.3112 C.ar    1  UNL1        0.1632
     16 N         139.5379  139.9231  169.4644 N.ar    1  UNL1       -0.2225
     17 C         140.3225  140.1558  170.7215 C.ar    1  UNL1        0.1079
     18 C         141.7667  140.3067  170.3451 C.ar    1  UNL1        0.0588
     19 S         141.8745  140.1674  168.8555 S.2     1  UNL1       -0.0509
     20 N         139.7854  142.9014  162.8373 N.am    1  UNL1       -0.2959
     21 C         139.2282  142.0378  161.7448 C.2     1  UNL1        0.2231
     22 O         137.7942  142.1850  161.3301 O.2     1  UNL1       -0.2751
     23 H         140.7266  142.8049  163.1095 H       1  UNL1        0.1502
     24 C         138.9086  143.9123  163.5152 C.3     1  UNL1        0.1364
     25 C         137.9658  144.5173  164.5128 C.3     1  UNL1        0.0353
     26 C         138.4142  143.0946  164.6714 C.3     1  UNL1        0.0353
     27 N         139.2883  146.2496  161.6731 N.1     1  UNL1       -0.1943
     28 C         139.0985  145.0809  162.5942 C.1     1  UNL1        0.0896
@<TRIPOS>BOND
     1    27    28    3
     2    28    24    1
     3    24    20    1
     4    20    21   am
     5    21    22    2
     6     1    21    1
     7     1     2    1
     8     2     3    1
     9     3     4    1
    10     4     5    1
    11     5     6    1
    12     6     7    1
    13     7     8    2
    14     7     9   am
    15     9    10    1
    16    10    11    1
    17    11    12    1
    18    12    15    1
    19    15    16   ar
    20    16    17   ar
    21    17    18   ar
    22    18    19   ar
    23    12    13    1
    24    13    14    1
    25    24    25    1
    26    25    26    1
    27    26    24    1
    28     6     1    1
    29    14     9    1
    30    19    15   ar
    31    20    23    1
@<TRIPOS>MOLECULE
*****
 28 31 0 0 0
SMALL
GASTEIGER

@<TRIPOS>ATOM
      1 C         138.4826  140.2564  164.1270 C.3     1  UNL1        0.0851
      2 C         138.5542  139.9409  165.5917 C.3     1  UNL1        0.0096
      3 C         138.7503  138.5246  166.0451 C.3     1  UNL1        0.0005
      4 C         138.8749  137.4238  165.0338 C.3     1  UNL1        0.0005
      5 C         138.8033  137.7393  163.5691 C.3     1  UNL1        0.0096
      6 C         138.6072  139.1556  163.1157 C.3     1  UNL1        0.0853
      7 C         138.5357  139.4711  161.6510 C.2     1  UNL1        0.2257
      8 O         137.2342  139.3367  160.9175 O.2     1  UNL1       -0.2749
      9 N         139.7656  139.9210  160.9198 N.am    1  UNL1       -0.2760
     10 C         141.0672  140.0554  161.6533 C.3     1  UNL1        0.1149
     11 C         142.2972  140.5054  160.9221 C.3     1  UNL1        0.1141
     12 N         142.2256  140.8209  159.4574 N.pl3   1  UNL1       -0.2846
     13 C         140.9241  140.6865  158.7239 C.3     1  UNL1        0.1141
     14 C         139.6941  140.2366  159.4551 C.3     1  UNL1        0.1149
     15 C         143.4556  141.2708  158.7261 C.ar    1  UNL1        0.1632
     16 N         144.3415  142.4177  159.1133 N.ar    1  UNL1       -0.2225
     17 C         145.4491  142.5086  158.1058 C.ar    1  UNL1        0.1079
     18 C         145.2477  141.4179  157.0960 C.ar    1  UNL1        0.0588
     19 S         144.0157  140.6529  157.4793 S.2     1  UNL1       -0.0509
     20 N         139.4108  142.6591  163.7873 N.am    1  UNL1       -0.2959
     21 C         138.2865  141.6727  163.6735 C.2     1  UNL1        0.2231
     22 O         136.9661  142.1026  163.1064 O.2     1  UNL1       -0.2751
     23 H         140.2774  142.3770  164.1595 H       1  UNL1        0.1502
     24 C         139.2147  144.0755  163.3338 C.3     1  UNL1        0.1364
     25 C         139.1709  145.2737  162.4325 C.3     1  UNL1        0.0353
     26 C         139.5853  143.9393  161.8867 C.3     1  UNL1        0.0353
     27 N         138.3371  145.3314  165.9131 N.1     1  UNL1       -0.1943
     28 C         138.7760  144.7034  164.6235 C.1     1  UNL1        0.0896
@<TRIPOS>BOND
     1    27    28    3
     2    28    24    1
     3    24    20    1
     4    20    21   am
     5    21    22    2
     6     1    21    1
     7     1     2    1
     8     2     3    1
     9     3     4    1
    10     4     5    1
    11     5     6    1
    12     6     7    1
    13     7     8    2
    14     7     9   am
    15     9    10    1
    16    10    11    1
    17    11    12    1
    18    12    15    1
    19    15    16   ar
    20    16    17   ar
    21    17    18   ar
    22    18    19   ar
    23    12    13    1
    24    13    14    1
    25    24    25    1
    26    25    26    1
    27    26    24    1
    28     6     1    1
    29    14     9    1
    30    19    15   ar
    31    20    23    1
@<TRIPOS>MOLECULE
*****
 28 31 0 0 0
SMALL
GASTEIGER

@<TRIPOS>ATOM
      1 C         140.5018  140.3159  165.2912 C.3     1  UNL1        0.0851
      2 C         139.1507  140.5632  165.8938 C.3     1  UNL1        0.0096
      3 C         138.1720  139.4346  166.0293 C.3     1  UNL1        0.0005
      4 C         138.5445  138.0587  165.5622 C.3     1  UNL1        0.0005
      5 C         139.8957  137.8114  164.9596 C.3     1  UNL1        0.0096
      6 C         140.8743  138.9400  164.8241 C.3     1  UNL1        0.0853
      7 C         142.2256  138.6928  164.2215 C.2     1  UNL1        0.2257
      8 O         143.4104  138.4533  165.1096 O.2     1  UNL1       -0.2749
      9 N         142.3919  138.6851  162.7308 N.am    1  UNL1       -0.2760
     10 C         141.2070  138.9246  161.8427 C.3     1  UNL1        0.1149
     11 C         141.3733  138.9168  160.3519 C.3     1  UNL1        0.1141
     12 N         142.7245  138.6696  159.7493 N.pl3   1  UNL1       -0.2846
     13 C         143.9094  138.4301  160.6374 C.3     1  UNL1        0.1141
     14 C         143.7430  138.4378  162.1281 C.3     1  UNL1        0.1149
     15 C         142.8908  138.6618  158.2586 C.ar    1  UNL1        0.1632
     16 N         143.9496  139.3910  157.4857 N.ar    1  UNL1       -0.2225
     17 C         143.7407  139.1034  156.0284 C.ar    1  UNL1        0.1079
     18 C         142.5528  138.1964  155.9006 C.ar    1  UNL1        0.0588
     19 S         142.0276  137.9235  157.2789 S.2     1  UNL1       -0.0509
     20 N         141.6068  142.1753  163.8518 N.am    1  UNL1       -0.2959
     21 C         141.4806  141.4446  165.1557 C.2     1  UNL1        0.2231
     22 O         142.3331  141.8424  166.3240 O.2     1  UNL1       -0.2751
     23 H         141.0473  141.9142  163.0850 H       1  UNL1        0.1502
     24 C         142.5856  143.3040  163.7163 C.3     1  UNL1        0.1364
     25 C         143.1427  144.6965  163.7353 C.3     1  UNL1        0.0353
     26 C         141.7114  144.4560  164.1144 C.3     1  UNL1        0.0353
     27 N         145.0136  141.7834  162.8258 N.1     1  UNL1       -0.1943
     28 C         143.7996  142.5438  163.2711 C.1     1  UNL1        0.0896
@<TRIPOS>BOND
     1    27    28    3
     2    28    24    1
     3    24    20    1
     4    20    21   am
     5    21    22    2
     6     1    21    1
     7     1     2    1
     8     2     3    1
     9     3     4    1
    10     4     5    1
    11     5     6    1
    12     6     7    1
    13     7     8    2
    14     7     9   am
    15     9    10    1
    16    10    11    1
    17    11    12    1
    18    12    15    1
    19    15    16   ar
    20    16    17   ar
    21    17    18   ar
    22    18    19   ar
    23    12    13    1
    24    13    14    1
    25    24    25    1
    26    25    26    1
    27    26    24    1
    28     6     1    1
    29    14     9    1
    30    19    15   ar
    31    20    23    1
