@<TRIPOS>MOLECULE
*****
 28 30 0 0 0
SMALL
GASTEIGER

@<TRIPOS>ATOM
      1 N         139.1489  139.7649  165.0914 N.ar    1  UNL1       -0.3190
      2 C         138.9975  140.0453  166.5572 C.ar    1  UNL1        0.0823
      3 C         140.3415  139.8786  167.2022 C.ar    1  UNL1        0.0895
      4 C         141.3235  139.4952  166.1350 C.ar    1  UNL1        0.1028
      5 N         142.7935  139.2010  166.1827 N.ar    1  UNL1       -0.2425
      6 C         143.5265  138.8365  164.9258 C.ar    1  UNL1        0.0946
      7 C         142.7895  138.7662  163.6213 C.ar    1  UNL1       -0.0013
      8 C         143.5226  138.4017  162.3643 C.3     1  UNL1        0.0327
      9 C         141.3194  139.0604  163.5736 C.ar    1  UNL1        0.0160
     10 C         140.5864  139.4249  164.8305 C.ar    1  UNL1        0.0780
     11 C         140.6494  140.0629  168.6586 C.2     1  UNL1        0.2489
     12 O         139.5713  139.8703  169.6834 O.2     1  UNL1       -0.2700
     13 N         142.0357  140.4398  169.0902 N.am    1  UNL1       -0.2984
     14 H         142.7434  140.5663  168.4176 H       1  UNL1        0.1498
     15 C         142.3437  140.6242  170.5467 C.3     1  UNL1        0.1215
     16 C         141.9303  141.8846  171.2469 C.3     1  UNL1        0.1583
     17 O         140.5517  142.0032  171.8260 O.3     1  UNL1       -0.3802
     18 H         139.8980  141.9937  171.1094 H       1  UNL1        0.2105
     19 C         138.0549  139.8156  164.0664 C.3     1  UNL1        0.1518
     20 C         138.1125  143.2423  162.0653 C.ar    1  UNL1        0.2234
     21 N         138.2962  142.7475  160.6612 N.ar    1  UNL1       -0.1896
     22 C         138.3994  141.2754  160.3922 C.ar    1  UNL1        0.2012
     23 N         138.3190  140.2981  161.5272 N.ar    1  UNL1       -0.2265
     24 C         138.1353  140.7929  162.9313 C.ar    1  UNL1        0.0841
     25 C         138.0321  142.2650  163.2003 C.ar    1  UNL1        0.0468
     26 C         137.8484  142.7597  164.6044 C.3     1  UNL1        0.0372
     27 C         139.2502  145.5547  162.3940 C.3     1  UNL1        0.2542
     28 O         138.0092  144.7143  162.3342 O.3     1  UNL1       -0.4563
@<TRIPOS>BOND
     1    27    28    1
     2    28    20    1
     3    20    21   ar
     4    21    22   ar
     5    22    23   ar
     6    23    24   ar
     7    24    19    1
     8    19     1    1
     9     1     2   ar
    10     2     3   ar
    11     3    11    1
    12    11    12    2
    13    11    13   am
    14    13    15    1
    15    15    16    1
    16    16    17    1
    17     3     4   ar
    18     4     5   ar
    19     5     6   ar
    20     6     7   ar
    21     7     8    1
    22     7     9   ar
    23     9    10   ar
    24    24    25   ar
    25    25    26    1
    26    25    20   ar
    27    10     1   ar
    28    10     4   ar
    29    13    14    1
    30    17    18    1
@<TRIPOS>MOLECULE
*****
 28 30 0 0 0
SMALL
GASTEIGER

@<TRIPOS>ATOM
      1 N         138.7388  140.0607  163.1166 N.ar    1  UNL1       -0.3190
      2 C         138.6735  139.7173  161.6579 C.ar    1  UNL1        0.0823
      3 C         138.3929  140.9791  160.8969 C.ar    1  UNL1        0.0895
      4 C         138.2847  142.1023  161.8853 C.ar    1  UNL1        0.1028
      5 N         138.0193  143.5685  161.7133 N.ar    1  UNL1       -0.2425
      6 C         137.9675  144.4671  162.9132 C.ar    1  UNL1        0.0946
      7 C         138.1813  143.8994  164.2850 C.ar    1  UNL1       -0.0013
      8 C         138.1296  144.7981  165.4850 C.3     1  UNL1        0.0327
      9 C         138.4468  142.4332  164.4570 C.ar    1  UNL1        0.0160
     10 C         138.4985  141.5346  163.2571 C.ar    1  UNL1        0.0780
     11 C         138.2462  141.0971  159.4088 C.2     1  UNL1        0.2489
     12 O         137.6268  139.9781  158.6251 O.2     1  UNL1       -0.2700
     13 N         138.7189  142.3341  158.7042 N.am    1  UNL1       -0.2984
     14 H         139.1255  143.0686  159.2185 H       1  UNL1        0.1498
     15 C         138.5722  142.4521  157.2161 C.3     1  UNL1        0.1215
     16 C         137.2328  142.7636  156.6169 C.3     1  UNL1        0.1583
     17 O         136.1824  141.6961  156.5328 O.3     1  UNL1       -0.3802
     18 H         136.4756  141.0013  155.9227 H       1  UNL1        0.2105
     19 C         138.9987  139.0989  164.2380 C.3     1  UNL1        0.1518
     20 C         139.9213  139.8878  168.0165 C.ar    1  UNL1        0.2234
     21 N         141.3082  140.4377  167.8607 N.ar    1  UNL1       -0.1896
     22 C         141.9252  140.5413  166.4974 C.ar    1  UNL1        0.2012
     23 N         141.1554  140.0951  165.2899 N.ar    1  UNL1       -0.2265
     24 C         139.7685  139.5452  165.4456 C.ar    1  UNL1        0.0841
     25 C         139.1515  139.4416  166.8089 C.ar    1  UNL1        0.0468
     26 C         137.7647  138.8917  166.9646 C.3     1  UNL1        0.0372
     27 C         140.1201  140.1003  170.5982 C.3     1  UNL1        0.2542
     28 O         139.3043  139.7842  169.3798 O.3     1  UNL1       -0.4563
@<TRIPOS>BOND
     1    27    28    1
     2    28    20    1
     3    20    21   ar
     4    21    22   ar
     5    22    23   ar
     6    23    24   ar
     7    24    19    1
     8    19     1    1
     9     1     2   ar
    10     2     3   ar
    11     3    11    1
    12    11    12    2
    13    11    13   am
    14    13    15    1
    15    15    16    1
    16    16    17    1
    17     3     4   ar
    18     4     5   ar
    19     5     6   ar
    20     6     7   ar
    21     7     8    1
    22     7     9   ar
    23     9    10   ar
    24    24    25   ar
    25    25    26    1
    26    25    20   ar
    27    10     1   ar
    28    10     4   ar
    29    13    14    1
    30    17    18    1
@<TRIPOS>MOLECULE
*****
 28 30 0 0 0
SMALL
GASTEIGER

@<TRIPOS>ATOM
      1 N         140.5355  143.9667  164.3822 N.ar    1  UNL1       -0.3190
      2 C         139.7246  144.6718  163.3357 C.ar    1  UNL1        0.0823
      3 C         140.5665  144.7923  162.1002 C.ar    1  UNL1        0.0895
      4 C         141.8977  144.1616  162.3830 C.ar    1  UNL1        0.1028
      5 N         143.1249  143.9860  161.5385 N.ar    1  UNL1       -0.2425
      6 C         144.3329  143.3001  162.1044 C.ar    1  UNL1        0.0946
      7 C         144.3137  142.7899  163.5149 C.ar    1  UNL1       -0.0013
      8 C         145.5218  142.1040  164.0808 C.3     1  UNL1        0.0327
      9 C         143.0866  142.9655  164.3594 C.ar    1  UNL1        0.0160
     10 C         141.8786  143.6514  163.7934 C.ar    1  UNL1        0.0780
     11 C         140.1502  145.4312  160.8085 C.2     1  UNL1        0.2489
     12 O         139.2624  146.6401  160.8215 O.2     1  UNL1       -0.2700
     13 N         140.6219  144.8612  159.5035 N.am    1  UNL1       -0.2984
     14 H         141.2047  144.0678  159.4949 H       1  UNL1        0.1498
     15 C         140.2057  145.5002  158.2118 C.3     1  UNL1        0.1215
     16 C         141.2326  146.1456  157.3293 C.3     1  UNL1        0.1583
     17 O         142.6410  146.3144  157.8171 O.3     1  UNL1       -0.3802
     18 H         142.6530  146.9360  158.5616 H       1  UNL1        0.2105
     19 C         140.0829  143.6351  165.7733 C.3     1  UNL1        0.1518
     20 C         140.1075  140.3592  168.0135 C.ar    1  UNL1        0.2234
     21 N         139.6263  139.3373  167.0265 N.ar    1  UNL1       -0.1896
     22 C         139.2973  139.7480  165.6219 C.ar    1  UNL1        0.2012
     23 N         139.4494  141.1805  165.2041 N.ar    1  UNL1       -0.2265
     24 C         139.9307  142.2025  166.1911 C.ar    1  UNL1        0.0841
     25 C         140.2597  141.7918  167.5957 C.ar    1  UNL1        0.0468
     26 C         140.7409  142.8138  168.5826 C.3     1  UNL1        0.0372
     27 C         141.8128  139.4542  169.7521 C.3     1  UNL1        0.2542
     28 O         140.4366  139.9486  169.4181 O.3     1  UNL1       -0.4563
@<TRIPOS>BOND
     1    27    28    1
     2    28    20    1
     3    20    21   ar
     4    21    22   ar
     5    22    23   ar
     6    23    24   ar
     7    24    19    1
     8    19     1    1
     9     1     2   ar
    10     2     3   ar
    11     3    11    1
    12    11    12    2
    13    11    13   am
    14    13    15    1
    15    15    16    1
    16    16    17    1
    17     3     4   ar
    18     4     5   ar
    19     5     6   ar
    20     6     7   ar
    21     7     8    1
    22     7     9   ar
    23     9    10   ar
    24    24    25   ar
    25    25    26    1
    26    25    20   ar
    27    10     1   ar
    28    10     4   ar
    29    13    14    1
    30    17    18    1
@<TRIPOS>MOLECULE
*****
 28 30 0 0 0
SMALL
GASTEIGER

@<TRIPOS>ATOM
      1 N         139.3315  139.7303  165.4536 N.ar    1  UNL1       -0.3190
      2 C         140.2051  139.5132  166.6535 C.ar    1  UNL1        0.0823
      3 C         140.5861  140.8576  167.1988 C.ar    1  UNL1        0.0895
      4 C         139.9481  141.9056  166.3359 C.ar    1  UNL1        0.1028
      5 N         139.9729  143.4043  166.3930 N.ar    1  UNL1       -0.2425
      6 C         139.2224  144.2063  165.3716 C.ar    1  UNL1        0.0946
      7 C         138.4469  143.5095  164.2930 C.ar    1  UNL1       -0.0013
      8 C         137.6964  144.3116  163.2715 C.3     1  UNL1        0.0327
      9 C         138.4221  142.0109  164.2359 C.ar    1  UNL1        0.0160
     10 C         139.1726  141.2089  165.2573 C.ar    1  UNL1        0.0780
     11 C         141.4531  141.1097  168.3966 C.2     1  UNL1        0.2489
     12 O         141.2113  140.3546  169.6698 O.2     1  UNL1       -0.2700
     13 N         142.5620  142.1172  168.3212 N.am    1  UNL1       -0.2984
     14 H         142.7207  142.6128  167.4855 H       1  UNL1        0.1498
     15 C         143.4289  142.3693  169.5191 C.3     1  UNL1        0.1215
     16 C         142.8836  143.1266  170.6934 C.3     1  UNL1        0.1583
     17 O         142.2062  142.3908  171.8112 O.3     1  UNL1       -0.3802
     18 H         141.3871  141.9877  171.4834 H       1  UNL1        0.2105
     19 C         138.7235  138.6572  164.5999 C.3     1  UNL1        0.1518
     20 C         140.6764  137.9613  161.2157 C.ar    1  UNL1        0.2234
     21 N         139.6845  138.4619  160.2080 N.ar    1  UNL1       -0.1896
     22 C         138.3723  139.0275  160.6642 C.ar    1  UNL1        0.2012
     23 N         138.0519  139.0927  162.1281 N.ar    1  UNL1       -0.2265
     24 C         139.0439  138.5921  163.1358 C.ar    1  UNL1        0.0841
     25 C         140.3561  138.0265  162.6796 C.ar    1  UNL1        0.0468
     26 C         141.3479  137.5259  163.6875 C.3     1  UNL1        0.0372
     27 C         143.1490  138.3095  160.4979 C.3     1  UNL1        0.2542
     28 O         141.9886  137.3956  160.7595 O.3     1  UNL1       -0.4563
@<TRIPOS>BOND
     1    27    28    1
     2    28    20    1
     3    20    21   ar
     4    21    22   ar
     5    22    23   ar
     6    23    24   ar
     7    24    19    1
     8    19     1    1
     9     1     2   ar
    10     2     3   ar
    11     3    11    1
    12    11    12    2
    13    11    13   am
    14    13    15    1
    15    15    16    1
    16    16    17    1
    17     3     4   ar
    18     4     5   ar
    19     5     6   ar
    20     6     7   ar
    21     7     8    1
    22     7     9   ar
    23     9    10   ar
    24    24    25   ar
    25    25    26    1
    26    25    20   ar
    27    10     1   ar
    28    10     4   ar
    29    13    14    1
    30    17    18    1
@<TRIPOS>MOLECULE
*****
 28 30 0 0 0
SMALL
GASTEIGER

@<TRIPOS>ATOM
      1 N         143.1451  139.3200  164.7211 N.ar    1  UNL1       -0.3190
      2 C         143.3829  139.5310  166.1870 C.ar    1  UNL1        0.0823
      3 C         142.0682  139.3883  166.8950 C.ar    1  UNL1        0.0895
      4 C         141.0179  139.0892  165.8667 C.ar    1  UNL1        0.1028
      5 N         139.5415  138.8497  165.9801 N.ar    1  UNL1       -0.2425
      6 C         138.7307  138.5682  164.7500 C.ar    1  UNL1        0.0946
      7 C         139.3963  138.5260  163.4064 C.ar    1  UNL1       -0.0013
      8 C         138.5854  138.2444  162.1763 C.3     1  UNL1        0.0327
      9 C         140.8727  138.7654  163.2930 C.ar    1  UNL1        0.0160
     10 C         141.6835  139.0470  164.5231 C.ar    1  UNL1        0.0780
     11 C         141.8433  139.5213  168.3721 C.2     1  UNL1        0.2489
     12 O         142.9433  139.1781  169.3322 O.2     1  UNL1       -0.2700
     13 N         140.5181  139.9976  168.8890 N.am    1  UNL1       -0.2984
     14 H         139.7960  140.2229  168.2589 H       1  UNL1        0.1498
     15 C         140.2931  140.1307  170.3661 C.3     1  UNL1        0.1215
     16 C         141.0615  141.1509  171.1527 C.3     1  UNL1        0.1583
     17 O         142.2700  140.7370  171.9390 O.3     1  UNL1       -0.3802
     18 H         142.0002  140.1460  172.6593 H       1  UNL1        0.2105
     19 C         144.1861  139.3729  163.6424 C.3     1  UNL1        0.1518
     20 C         144.3736  142.9595  161.9538 C.ar    1  UNL1        0.2234
     21 N         144.0396  142.6208  160.5312 N.ar    1  UNL1       -0.1896
     22 C         143.7545  141.1995  160.1457 C.ar    1  UNL1        0.2012
     23 N         143.8033  140.1169  161.1827 N.ar    1  UNL1       -0.2265
     24 C         144.1373  140.4556  162.6053 C.ar    1  UNL1        0.0841
     25 C         144.4224  141.8769  162.9908 C.ar    1  UNL1        0.0468
     26 C         144.7564  142.2155  164.4134 C.3     1  UNL1        0.0372
     27 C         143.6594  145.1534  163.1483 C.3     1  UNL1        0.2542
     28 O         144.6587  144.3808  162.3393 O.3     1  UNL1       -0.4563
@<TRIPOS>BOND
     1    27    28    1
     2    28    20    1
     3    20    21   ar
     4    21    22   ar
     5    22    23   ar
     6    23    24   ar
     7    24    19    1
     8    19     1    1
     9     1     2   ar
    10     2     3   ar
    11     3    11    1
    12    11    12    2
    13    11    13   am
    14    13    15    1
    15    15    16    1
    16    16    17    1
    17     3     4   ar
    18     4     5   ar
    19     5     6   ar
    20     6     7   ar
    21     7     8    1
    22     7     9   ar
    23     9    10   ar
    24    24    25   ar
    25    25    26    1
    26    25    20   ar
    27    10     1   ar
    28    10     4   ar
    29    13    14    1
    30    17    18    1
@<TRIPOS>MOLECULE
*****
 28 30 0 0 0
SMALL
GASTEIGER

@<TRIPOS>ATOM
      1 N         139.2529  139.6379  165.2337 N.ar    1  UNL1       -0.3190
      2 C         139.0977  139.9304  166.6967 C.ar    1  UNL1        0.0823
      3 C         140.4509  139.8284  167.3359 C.ar    1  UNL1        0.0895
      4 C         141.4424  139.4730  166.2679 C.ar    1  UNL1        0.1028
      5 N         142.9238  139.2413  166.3107 N.ar    1  UNL1       -0.2425
      6 C         143.6647  138.8919  165.0542 C.ar    1  UNL1        0.0946
      7 C         142.9244  138.7741  163.7550 C.ar    1  UNL1       -0.0013
      8 C         143.6654  138.4247  162.4984 C.3     1  UNL1        0.0327
      9 C         141.4430  139.0058  163.7122 C.ar    1  UNL1        0.0160
     10 C         140.7020  139.3552  164.9687 C.ar    1  UNL1        0.0780
     11 C         140.7585  140.0441  168.7881 C.2     1  UNL1        0.2489
     12 O         139.6939  139.8230  169.8212 O.2     1  UNL1       -0.2700
     13 N         142.1311  140.4809  169.2071 N.am    1  UNL1       -0.2984
     14 H         142.8299  140.6260  168.5291 H       1  UNL1        0.1498
     15 C         142.4387  140.6965  170.6593 C.3     1  UNL1        0.1215
     16 C         141.9594  141.9381  171.3511 C.3     1  UNL1        0.1583
     17 O         140.5675  141.9969  171.9073 O.3     1  UNL1       -0.3802
     18 H         139.9268  141.9586  171.1800 H       1  UNL1        0.2105
     19 C         138.1523  139.6296  164.2146 C.3     1  UNL1        0.1518
     20 C         138.0999  141.5555  160.7450 C.ar    1  UNL1        0.2234
     21 N         137.8477  142.9609  161.2047 N.ar    1  UNL1       -0.1896
     22 C         137.6971  143.2558  162.6676 C.ar    1  UNL1        0.2012
     23 N         137.7986  142.1455  163.6710 N.ar    1  UNL1       -0.2265
     24 C         138.0508  140.7401  163.2113 C.ar    1  UNL1        0.0841
     25 C         138.2014  140.4451  161.7483 C.ar    1  UNL1        0.0468
     26 C         138.4535  139.0397  161.2887 C.3     1  UNL1        0.0372
     27 C         139.5960  141.3736  158.6288 C.3     1  UNL1        0.2542
     28 O         138.2505  141.2606  159.2820 O.3     1  UNL1       -0.4563
@<TRIPOS>BOND
     1    27    28    1
     2    28    20    1
     3    20    21   ar
     4    21    22   ar
     5    22    23   ar
     6    23    24   ar
     7    24    19    1
     8    19     1    1
     9     1     2   ar
    10     2     3   ar
    11     3    11    1
    12    11    12    2
    13    11    13   am
    14    13    15    1
    15    15    16    1
    16    16    17    1
    17     3     4   ar
    18     4     5   ar
    19     5     6   ar
    20     6     7   ar
    21     7     8    1
    22     7     9   ar
    23     9    10   ar
    24    24    25   ar
    25    25    26    1
    26    25    20   ar
    27    10     1   ar
    28    10     4   ar
    29    13    14    1
    30    17    18    1
@<TRIPOS>MOLECULE
*****
 28 30 0 0 0
SMALL
GASTEIGER

@<TRIPOS>ATOM
      1 N         138.8613  143.0665  164.4584 N.ar    1  UNL1       -0.3190
      2 C         139.4510  143.7068  165.6800 C.ar    1  UNL1        0.0823
      3 C         140.0444  142.6232  166.5306 C.ar    1  UNL1        0.0895
      4 C         139.8214  141.3132  165.8348 C.ar    1  UNL1        0.1028
      5 N         140.1897  139.9062  166.2019 N.ar    1  UNL1       -0.2425
      6 C         139.8268  138.7733  165.2883 C.ar    1  UNL1        0.0946
      7 C         139.0956  139.0473  164.0076 C.ar    1  UNL1       -0.0013
      8 C         138.7326  137.9143  163.0940 C.3     1  UNL1        0.0327
      9 C         138.7273  140.4543  163.6405 C.ar    1  UNL1        0.0160
     10 C         139.0902  141.5872  164.5541 C.ar    1  UNL1        0.0780
     11 C         140.7389  142.8157  167.8461 C.2     1  UNL1        0.2489
     12 O         140.1316  143.7027  168.8922 O.2     1  UNL1       -0.2700
     13 N         142.0409  142.1211  168.1156 N.am    1  UNL1       -0.2984
     14 H         142.4396  141.5389  167.4291 H       1  UNL1        0.1498
     15 C         142.7354  142.3136  169.4312 C.3     1  UNL1        0.1215
     16 C         142.2769  141.5526  170.6397 C.3     1  UNL1        0.1583
     17 O         142.0889  142.2638  171.9470 O.3     1  UNL1       -0.3802
     18 H         142.9476  142.5792  172.2698 H       1  UNL1        0.2105
     19 C         138.1649  143.7803  163.3379 C.3     1  UNL1        0.1518
     20 C         140.3828  144.5063  160.1279 C.ar    1  UNL1        0.2234
     21 N         139.7971  143.5295  159.1518 N.ar    1  UNL1       -0.1896
     22 C         138.6673  142.6363  159.5711 C.ar    1  UNL1        0.2012
     23 N         138.1232  142.7199  160.9664 N.ar    1  UNL1       -0.2265
     24 C         138.7090  143.6967  161.9425 C.ar    1  UNL1        0.0841
     25 C         139.8387  144.5899  161.5232 C.ar    1  UNL1        0.0468
     26 C         140.4244  145.5667  162.4994 C.3     1  UNL1        0.0372
     27 C         141.7745  145.6441  158.2521 C.3     1  UNL1        0.2542
     28 O         141.5126  145.3995  159.7087 O.3     1  UNL1       -0.4563
@<TRIPOS>BOND
     1    27    28    1
     2    28    20    1
     3    20    21   ar
     4    21    22   ar
     5    22    23   ar
     6    23    24   ar
     7    24    19    1
     8    19     1    1
     9     1     2   ar
    10     2     3   ar
    11     3    11    1
    12    11    12    2
    13    11    13   am
    14    13    15    1
    15    15    16    1
    16    16    17    1
    17     3     4   ar
    18     4     5   ar
    19     5     6   ar
    20     6     7   ar
    21     7     8    1
    22     7     9   ar
    23     9    10   ar
    24    24    25   ar
    25    25    26    1
    26    25    20   ar
    27    10     1   ar
    28    10     4   ar
    29    13    14    1
    30    17    18    1
@<TRIPOS>MOLECULE
*****
 28 30 0 0 0
SMALL
GASTEIGER

@<TRIPOS>ATOM
      1 N         141.3626  142.0556  164.5549 N.ar    1  UNL1       -0.3190
      2 C         141.4030  142.4526  166.0008 C.ar    1  UNL1        0.0823
      3 C         140.5621  141.4792  166.7724 C.ar    1  UNL1        0.0895
      4 C         140.0019  140.4807  165.8033 C.ar    1  UNL1        0.1028
      5 N         139.1052  139.2931  165.9917 N.ar    1  UNL1       -0.2425
      6 C         138.7033  138.4617  164.8097 C.ar    1  UNL1        0.0946
      7 C         139.1981  138.8180  163.4392 C.ar    1  UNL1       -0.0013
      8 C         138.7962  137.9865  162.2571 C.3     1  UNL1        0.0327
      9 C         140.0948  140.0056  163.2507 C.ar    1  UNL1        0.0160
     10 C         140.4967  140.8369  164.4328 C.ar    1  UNL1        0.0780
     11 C         140.3232  141.5006  168.2531 C.2     1  UNL1        0.2489
     12 O         140.2592  142.8090  168.9837 O.2     1  UNL1       -0.2700
     13 N         140.1483  140.2134  169.0033 N.am    1  UNL1       -0.2984
     14 H         140.1903  139.3545  168.5238 H       1  UNL1        0.1498
     15 C         139.9094  140.2347  170.4840 C.3     1  UNL1        0.1215
     16 C         140.9218  140.8589  171.3980 C.3     1  UNL1        0.1583
     17 O         140.6919  142.2379  171.9416 O.3     1  UNL1       -0.3802
     18 H         140.7121  142.8796  171.2144 H       1  UNL1        0.2105
     19 C         142.0648  142.7546  163.4287 C.3     1  UNL1        0.1518
     20 C         141.1012  145.1407  160.4074 C.ar    1  UNL1        0.2234
     21 N         139.8637  145.7950  160.9465 N.ar    1  UNL1       -0.1896
     22 C         139.3600  145.4358  162.3129 C.ar    1  UNL1        0.2012
     23 N         140.0936  144.4224  163.1403 N.ar    1  UNL1       -0.2265
     24 C         141.3311  143.7681  162.6013 C.ar    1  UNL1        0.0841
     25 C         141.8349  144.1273  161.2348 C.ar    1  UNL1        0.0468
     26 C         143.0724  143.4730  160.6958 C.3     1  UNL1        0.0372
     27 C         140.6334  145.8091  157.9408 C.3     1  UNL1        0.2542
     28 O         141.6050  145.4999  159.0409 O.3     1  UNL1       -0.4563
@<TRIPOS>BOND
     1    27    28    1
     2    28    20    1
     3    20    21   ar
     4    21    22   ar
     5    22    23   ar
     6    23    24   ar
     7    24    19    1
     8    19     1    1
     9     1     2   ar
    10     2     3   ar
    11     3    11    1
    12    11    12    2
    13    11    13   am
    14    13    15    1
    15    15    16    1
    16    16    17    1
    17     3     4   ar
    18     4     5   ar
    19     5     6   ar
    20     6     7   ar
    21     7     8    1
    22     7     9   ar
    23     9    10   ar
    24    24    25   ar
    25    25    26    1
    26    25    20   ar
    27    10     1   ar
    28    10     4   ar
    29    13    14    1
    30    17    18    1
@<TRIPOS>MOLECULE
*****
 28 30 0 0 0
SMALL
GASTEIGER

@<TRIPOS>ATOM
      1 N         139.3768  142.2223  165.1493 N.ar    1  UNL1       -0.3190
      2 C         139.8973  142.1005  166.5508 C.ar    1  UNL1        0.0823
      3 C         139.9684  140.6420  166.8938 C.ar    1  UNL1        0.0895
      4 C         139.4919  139.8623  165.7042 C.ar    1  UNL1        0.1028
      5 N         139.3437  138.3892  165.4635 N.ar    1  UNL1       -0.2425
      6 C         138.8299  137.8928  164.1446 C.ar    1  UNL1        0.0946
      7 C         138.4642  138.8695  163.0665 C.ar    1  UNL1       -0.0013
      8 C         137.9504  138.3730  161.7475 C.3     1  UNL1        0.0327
      9 C         138.6124  140.3426  163.3072 C.ar    1  UNL1        0.0160
     10 C         139.1263  140.8390  164.6261 C.ar    1  UNL1        0.0780
     11 C         140.4343  140.0645  168.1974 C.2     1  UNL1        0.2489
     12 O         139.4399  139.7429  169.2733 O.2     1  UNL1       -0.2700
     13 N         141.8947  139.8086  168.4251 N.am    1  UNL1       -0.2984
     14 H         142.5475  140.0196  167.7190 H       1  UNL1        0.1498
     15 C         142.3606  139.2311  169.7288 C.3     1  UNL1        0.1215
     16 C         142.9797  140.1216  170.7649 C.3     1  UNL1        0.1583
     17 O         142.1411  140.6675  171.8824 O.3     1  UNL1       -0.3802
     18 H         141.4773  141.2757  171.5212 H       1  UNL1        0.2105
     19 C         139.1472  143.5025  164.4022 C.3     1  UNL1        0.1518
     20 C         142.0633  144.1669  161.7935 C.ar    1  UNL1        0.2234
     21 N         141.2850  144.2531  160.5142 N.ar    1  UNL1       -0.1896
     22 C         139.7941  144.0892  160.5308 C.ar    1  UNL1        0.2012
     23 N         139.0814  143.8390  161.8267 N.ar    1  UNL1       -0.2265
     24 C         139.8598  143.7527  163.1061 C.ar    1  UNL1        0.0841
     25 C         141.3507  143.9167  163.0895 C.ar    1  UNL1        0.0468
     26 C         142.1290  143.8305  164.3689 C.3     1  UNL1        0.0372
     27 C         144.4379  143.1363  161.5719 C.3     1  UNL1        0.2542
     28 O         143.5542  144.3309  161.7769 O.3     1  UNL1       -0.4563
@<TRIPOS>BOND
     1    27    28    1
     2    28    20    1
     3    20    21   ar
     4    21    22   ar
     5    22    23   ar
     6    23    24   ar
     7    24    19    1
     8    19     1    1
     9     1     2   ar
    10     2     3   ar
    11     3    11    1
    12    11    12    2
    13    11    13   am
    14    13    15    1
    15    15    16    1
    16    16    17    1
    17     3     4   ar
    18     4     5   ar
    19     5     6   ar
    20     6     7   ar
    21     7     8    1
    22     7     9   ar
    23     9    10   ar
    24    24    25   ar
    25    25    26    1
    26    25    20   ar
    27    10     1   ar
    28    10     4   ar
    29    13    14    1
    30    17    18    1
